# LPF package for  MODFLOW-2005, generated by Flopy.
         0    -1E+30         0  
         0         0         0         0         0         0         0         0         0         0         0         0         0         0         0         0         0         0         0         0
         0         0         0         0         0         0         0         0         0         0         0         0         0         0         0         0         0         0         0         0
   1.000000E+00   1.000000E+00   1.000000E+00   1.000000E+00   1.000000E+00   1.000000E+00   1.000000E+00   1.000000E+00   1.000000E+00   1.000000E+00   1.000000E+00   1.000000E+00   1.000000E+00   1.000000E+00   1.000000E+00   1.000000E+00   1.000000E+00   1.000000E+00   1.000000E+00   1.000000E+00
         0         0         0         0         0         0         0         0         0         0         0         0         0         0         0         0         0         0         0         0
         0         0         0         0         0         0         0         0         0         0         0         0         0         0         0         0         0         0         0         0
INTERNAL               1  (42E15.6) -1 #hk layer 1                    
   2.126962E-02   9.077006E-04   7.730501E-04   7.668334E-04   7.667011E-04   7.315174E-04   8.157731E-04   7.866077E-04   8.680858E-04   9.116686E-04   8.684826E-04   8.194767E-04   7.893192E-04   7.663704E-04   9.216550E-04   9.039970E-04   1.055975E-03   1.062654E-03   1.176340E-03   1.261390E-03   1.314430E-03   1.262977E-03   1.253520E-03   1.217608E-03   1.246708E-03   1.212714E-03   1.281230E-03   1.258678E-03   1.183284E-03   1.109147E-03   1.148630E-03   1.039110E-03   1.002736E-03   9.118671E-04   8.608110E-04   8.498987E-04   7.456702E-04   8.054561E-04   7.833010E-04   8.298599E-04   8.163684E-04   2.126962E-02
   2.126962E-02   1.370248E-03   1.383210E-03   1.455958E-03   1.417468E-03   1.521233E-03   1.532807E-03   1.610582E-03   1.591998E-03   1.514355E-03   1.396106E-03   1.464357E-03   1.536180E-03   1.517728E-03   1.472492E-03   1.366809E-03   1.371967E-03   1.381028E-03   1.220518E-03   1.229182E-03   1.156632E-03   1.162518E-03   1.263771E-03   1.187980E-03   1.219262E-03   1.246509E-03   1.300211E-03   1.323424E-03   1.286587E-03   1.302658E-03   1.420708E-03   1.485521E-03   1.533072E-03   1.582342E-03   1.552383E-03   1.517067E-03   1.518522E-03   1.493258E-03   1.491870E-03   1.509792E-03   1.487835E-03   2.126962E-02
   2.126962E-02   1.073236E-03   1.154979E-03   1.320316E-03   1.337180E-03   1.307750E-03   1.245319E-03   1.245385E-03   1.313173E-03   1.305039E-03   1.303385E-03   1.147968E-03   1.141487E-03   1.090299E-03   1.032695E-03   1.027801E-03   1.034812E-03   1.010805E-03   9.762824E-04   1.017683E-03   1.070326E-03   1.099954E-03   1.029984E-03   9.708593E-04   9.613359E-04   8.418964E-04   8.264870E-04   8.252304E-04   8.774108E-04   8.123341E-04   8.185508E-04   8.288017E-04   7.559872E-04   9.479767E-04   8.332328E-04   9.342867E-04   8.095565E-04   7.062539E-04   8.072418E-04   7.469929E-04   7.551275E-04   2.126962E-02
   2.126962E-02   1.225809E-03   1.225677E-03   1.287182E-03   1.329442E-03   1.409267E-03   1.449874E-03   1.584326E-03   1.655024E-03   1.736833E-03   1.801381E-03   1.873930E-03   1.956268E-03   1.957459E-03   1.953888E-03   2.006729E-03   1.888546E-03   1.976572E-03   2.001968E-03   1.975249E-03   1.984111E-03   1.984309E-03   2.094292E-03   2.083049E-03   2.126962E-03   2.021874E-03   1.967511E-03   1.828165E-03   1.785244E-03   1.797875E-03   1.645501E-03   1.729492E-03   1.745100E-03   1.722482E-03   1.705287E-03   1.667193E-03   1.723341E-03   1.628901E-03   1.587897E-03   1.606944E-03   1.618782E-03   2.126962E-02
   2.126962E-02   7.280122E-04   7.513578E-04   6.489348E-04   7.885256E-04   8.237093E-04   7.877981E-04   6.531013E-04   7.133303E-04   7.831025E-04   7.839623E-04   8.061175E-04   6.140288E-04   6.739139E-04   5.750358E-04   5.256132E-04   5.198529E-04   3.944414E-04   5.439325E-04   4.643260E-04   5.110569E-04   4.681817E-04   5.018642E-04   5.997570E-04   5.554532E-04   6.246303E-04   5.115992E-04   5.840764E-04   5.762394E-04   6.304634E-04   6.709379E-04   6.797338E-04   6.762287E-04   5.850155E-04   6.075741E-04   6.112644E-04   5.965758E-04   7.541355E-04   5.389063E-04   6.319250E-04   6.121109E-04   2.126962E-02
   2.126962E-02   1.123432E-03   1.157558E-03   1.171909E-03   1.115893E-03   1.131964E-03   1.107362E-03   1.131104E-03   1.123961E-03   1.036994E-03   1.044401E-03   9.127929E-04   9.428843E-04   9.609391E-04   9.711239E-04   8.988385E-04   8.500310E-04   7.290704E-04   7.236473E-04   6.248088E-04   6.194850E-04   6.580217E-04   6.712686E-04   5.756508E-04   6.791386E-04   6.246567E-04   7.922291E-04   7.915678E-04   8.233787E-04   8.307196E-04   7.210019E-04   7.428264E-04   7.567808E-04   7.511594E-04   7.973877E-04   7.117431E-04   7.215310E-04   7.294011E-04   8.061175E-04   8.739718E-04   9.867979E-04   2.126962E-02
   2.126962E-02   4.084223E-04   3.515265E-04   4.940536E-04   4.446906E-04   5.229347E-04   4.441549E-04   4.376208E-04   3.426512E-04   3.473600E-04   3.695879E-04   4.395586E-04   4.234084E-04   4.947150E-04   4.840144E-04   5.834745E-04   5.989831E-04   7.360807E-04   7.287397E-04   7.350887E-04   7.563179E-04   6.962013E-04   7.407101E-04   7.372050E-04   8.222543E-04   8.051916E-04   7.944116E-04   7.917001E-04   8.278097E-04   8.895135E-04   9.157029E-04   9.783326E-04   9.764147E-04   9.205307E-04   1.057364E-03   1.007366E-03   1.095259E-03   1.160534E-03   1.211590E-03   1.142678E-03   1.115099E-03   2.126962E-02
   2.126962E-02   1.256760E-03   1.363766E-03   1.325011E-03   1.442731E-03   1.281825E-03   1.340024E-03   1.416806E-03   1.291746E-03   1.374679E-03   1.315488E-03   1.372893E-03   1.297169E-03   1.249485E-03   1.295118E-03   1.264167E-03   1.277857E-03   1.158153E-03   1.186657E-03   1.149820E-03   1.092614E-03   1.087190E-03   1.045129E-03   1.144529E-03   1.093936E-03   1.209672E-03   1.145058E-03   1.163907E-03   1.225015E-03   1.252131E-03   1.270450E-03   1.167743E-03   1.205506E-03   1.306692E-03   1.353846E-03   1.424412E-03   1.339296E-03   1.377853E-03   1.307287E-03   1.379903E-03   1.316744E-03   2.126962E-02
   2.126962E-02   1.389228E-03   1.408804E-03   1.459265E-03   1.542595E-03   1.597884E-03   1.659257E-03   1.585781E-03   1.511247E-03   1.449345E-03   1.374679E-03   1.243533E-03   1.244790E-03   1.184409E-03   1.133287E-03   1.257951E-03   1.163047E-03   1.166420E-03   1.179581E-03   1.184673E-03   1.344918E-03   1.209077E-03   1.207820E-03   1.212847E-03   1.126673E-03   1.082429E-03   1.106700E-03   1.026214E-03   1.010739E-03   1.012194E-03   1.082958E-03   1.060207E-03   1.063448E-03   9.498946E-04   9.754226E-04   8.954656E-04   8.376638E-04   9.533336E-04   8.746331E-04   8.770801E-04   7.860124E-04   2.126962E-02
   2.126962E-02   7.854173E-04   8.407060E-04   8.035382E-04   7.601538E-04   8.454677E-04   7.701401E-04   8.758235E-04   8.389865E-04   9.444715E-04   9.639813E-04   9.881867E-04   9.840863E-04   9.160997E-04   9.166949E-04   9.113380E-04   9.888480E-04   1.040036E-03   9.737031E-04   9.674203E-04   9.423552E-04   9.354772E-04   8.876617E-04   9.184806E-04   8.822387E-04   8.500310E-04   9.647749E-04   8.598189E-04   1.044798E-03   1.058091E-03   1.020196E-03   1.110536E-03   9.551193E-04   1.069797E-03   1.111660E-03   1.202464E-03   1.246642E-03   1.113248E-03   1.109213E-03   1.084611E-03   1.149622E-03   2.126962E-02
   2.126962E-02   1.455760E-03   1.424214E-03   1.342934E-03   1.325276E-03   1.300409E-03   1.208548E-03   1.250874E-03   1.196379E-03   1.122110E-03   1.063977E-03   1.067813E-03   1.166751E-03   1.124821E-03   1.091357E-03   1.004125E-03   1.046848E-03   1.003993E-03   9.943371E-04   9.526061E-04   9.635183E-04   1.055512E-03   1.128988E-03   1.163775E-03   1.222502E-03   1.234870E-03   1.294655E-03   1.265093E-03   1.168404E-03   1.065763E-03   1.076675E-03   1.054586E-03   1.114504E-03   9.516802E-04   9.227132E-04   9.270119E-04   9.641797E-04   9.964535E-04   1.019138E-03   1.144000E-03   1.072310E-03   2.126962E-02
   2.126962E-02   1.776646E-03   1.654231E-03   1.627710E-03   1.556814E-03   1.441343E-03   1.497822E-03   1.452387E-03   1.502451E-03   1.575927E-03   1.476989E-03   1.687496E-03   1.581085E-03   1.683793E-03   1.576258E-03   1.540148E-03   1.476923E-03   1.499938E-03   1.592130E-03   1.592394E-03   1.645699E-03   1.641533E-03   1.633464E-03   1.651387E-03   1.625263E-03   1.663357E-03   1.585715E-03   1.557078E-03   1.597950E-03   1.635118E-03   1.745629E-03   1.570967E-03   1.685909E-03   1.543785E-03   1.528707E-03   1.599140E-03   1.516604E-03   1.574803E-03   1.554169E-03   1.600926E-03   1.621560E-03   2.126962E-02
   2.126962E-02   1.208879E-03   1.216153E-03   1.181631E-03   1.017550E-03   1.073897E-03   9.366676E-04   9.961890E-04   1.032232E-03   1.083818E-03   1.084347E-03   1.010673E-03   1.060869E-03   1.017484E-03   1.145720E-03   1.191353E-03   1.271442E-03   1.365949E-03   1.230769E-03   1.342669E-03   1.265688E-03   1.395974E-03   1.396040E-03   1.322829E-03   1.312644E-03   1.190030E-03   1.220055E-03   1.292473E-03   1.266350E-03   1.286653E-03   1.214103E-03   1.279048E-03   1.195321E-03   1.359468E-03   1.281627E-03   1.293267E-03   1.269194E-03   1.099756E-03   1.131038E-03   9.500268E-04   1.008424E-03   2.126962E-02
   2.126962E-02   1.459331E-03   1.319192E-03   1.337511E-03   1.313967E-03   1.295581E-03   1.351664E-03   1.216815E-03   1.138445E-03   1.045526E-03   1.157756E-03   1.078924E-03   1.143670E-03   1.145058E-03   1.158550E-03   1.121316E-03   1.032960E-03   1.125350E-03   1.206895E-03   1.203389E-03   1.224023E-03   1.191154E-03   1.132824E-03   1.142149E-03   1.244988E-03   1.184739E-03   1.141289E-03   1.057231E-03   1.058686E-03   9.698673E-04   1.012590E-03   8.984417E-04   9.202662E-04   8.129294E-04   7.075766E-04   7.568470E-04   7.595585E-04   7.700740E-04   7.419667E-04   6.661100E-04   5.919531E-04   2.126962E-02
   2.126962E-02   6.531013E-04   7.436200E-04   6.936882E-04   7.368082E-04   7.440168E-04   7.947423E-04   8.514859E-04   8.532716E-04   8.541314E-04   7.899806E-04   8.678213E-04   8.140536E-04   8.700037E-04   7.882611E-04   8.153102E-04   7.183565E-04   7.663704E-04   7.469268E-04   6.766255E-04   6.424800E-04   6.328839E-04   7.567808E-04   7.466623E-04   7.373372E-04   6.983838E-04   7.717935E-04   8.370685E-04   8.366056E-04   8.112098E-04   8.404414E-04   9.084942E-04   9.824991E-04   9.363369E-04   9.284008E-04   8.061175E-04   8.428223E-04   8.278097E-04   7.524821E-04   7.058571E-04   7.255652E-04   2.126962E-02
   2.126962E-02   1.572356E-03   1.590477E-03   1.585847E-03   1.482346E-03   1.494713E-03   1.445774E-03   1.470243E-03   1.514884E-03   1.410325E-03   1.464225E-03   1.334865E-03   1.274220E-03   1.355962E-03   1.294259E-03   1.313967E-03   1.264167E-03   1.182292E-03   1.264300E-03   1.377258E-03   1.369322E-03   1.440615E-03   1.416079E-03   1.384996E-03   1.427454E-03   1.358872E-03   1.319787E-03   1.307353E-03   1.208019E-03   1.243467E-03   1.202596E-03   1.162187E-03   1.165626E-03   1.267077E-03   1.324152E-03   1.246311E-03   1.244128E-03   1.202596E-03   1.243004E-03   1.218071E-03   1.163113E-03   2.126962E-02
   2.126962E-02   1.030447E-03   1.081437E-03   1.065895E-03   1.061596E-03   1.036134E-03   1.061861E-03   1.075154E-03   1.091820E-03   1.103989E-03   1.074757E-03   1.142016E-03   1.155574E-03   1.182292E-03   1.069070E-03   1.140694E-03   1.207887E-03   1.155640E-03   1.125615E-03   1.153722E-03   1.020593E-03   1.109015E-03   1.007366E-03   1.028595E-03   1.072178E-03   9.374612E-04   1.087124E-03   1.053660E-03   1.157095E-03   1.206498E-03   1.186922E-03   1.110338E-03   9.875915E-04   9.920225E-04   9.942049E-04   9.994957E-04   9.781341E-04   9.927499E-04   1.075881E-03   9.346174E-04   1.051478E-03   2.126962E-02
   2.126962E-02   1.219725E-03   1.247435E-03   1.209408E-03   1.254247E-03   1.254512E-03   1.268929E-03   1.251602E-03   1.208283E-03   1.168867E-03   1.166420E-03   1.151341E-03   1.041028E-03   1.104452E-03   1.050949E-03   1.126938E-03   1.049824E-03   1.006969E-03   1.010011E-03   1.041028E-03   1.151275E-03   1.064043E-03   1.107097E-03   1.090497E-03   1.187583E-03   1.358806E-03   1.180507E-03   1.330765E-03   1.201075E-03   1.290357E-03   1.209738E-03   1.213508E-03   1.299880E-03   1.176406E-03   1.229248E-03   1.096053E-03   1.016558E-03   9.672219E-04   8.770140E-04   9.959906E-04   9.287315E-04   2.126962E-02
   2.126962E-02   1.685777E-03   1.671359E-03   1.498681E-03   1.602513E-03   1.428843E-03   1.463564E-03   1.467863E-03   1.471632E-03   1.461249E-03   1.400802E-03   1.403712E-03   1.447493E-03   1.362510E-03   1.355962E-03   1.319919E-03   1.421833E-03   1.361848E-03   1.502848E-03   1.464424E-03   1.452916E-03   1.467267E-03   1.483140E-03   1.534262E-03   1.467730E-03   1.635911E-03   1.733592E-03   1.874989E-03   1.987550E-03   1.928756E-03   2.015327E-03   1.916058E-03   1.992047E-03   1.867648E-03   1.836895E-03   1.865002E-03   1.896218E-03   1.938147E-03   1.914670E-03   1.875584E-03   1.803100E-03   2.126962E-02
   2.126962E-02   1.481949E-03   1.487571E-03   1.513826E-03   1.566337E-03   1.600265E-03   1.479172E-03   1.431687E-03   1.296243E-03   1.289034E-03   1.173166E-03   1.062853E-03   9.977100E-04   9.764808E-04   9.808457E-04   9.968503E-04   9.703964E-04   1.074757E-03   9.584260E-04   9.684784E-04   9.246972E-04   9.453974E-04   9.162319E-04   8.962592E-04   8.495681E-04   7.517546E-04   7.709338E-04   6.024619E-04   7.207374E-04   7.190179E-04   7.296656E-04   8.387881E-04   7.858141E-04   8.266193E-04   9.543256E-04   9.040632E-04   9.549208E-04   8.308519E-04   8.837598E-04   8.756252E-04   9.434795E-04   2.126962E-02
CONSTANT    1.000000E+00                           #vka1                          
INTERNAL               1  (42E15.6) -1 #hk layer 2                    
   2.126962E-02   7.944116E-04   8.026123E-04   8.407060E-04   8.985740E-04   9.700657E-04   9.725127E-04   1.050552E-03   9.431489E-04   9.872607E-04   1.051213E-03   9.734386E-04   1.016889E-03   9.624602E-04   9.782003E-04   1.010937E-03   1.043079E-03   9.604100E-04   1.044401E-03   1.021982E-03   1.150945E-03   1.136461E-03   1.092746E-03   1.048237E-03   1.039573E-03   9.427520E-04   9.866656E-04   9.426859E-04   8.649113E-04   8.167652E-04   8.311826E-04   8.243045E-04   8.385236E-04   6.946141E-04   7.233828E-04   7.483156E-04   7.268880E-04   7.814491E-04   7.752986E-04   8.192783E-04   8.241062E-04   2.126962E-02
   2.126962E-02   1.007432E-03   8.481131E-04   9.521432E-04   9.831605E-04   9.678833E-04   1.043079E-03   9.898400E-04   1.026346E-03   1.048171E-03   9.912950E-04   1.094796E-03   9.829620E-04   1.081834E-03   1.007035E-03   1.010540E-03   9.395114E-04   9.692060E-04   9.865332E-04   9.741661E-04   1.001612E-03   9.610713E-04   9.194725E-04   9.227132E-04   9.465878E-04   1.039441E-03   1.045790E-03   9.728434E-04   9.629893E-04   9.528706E-04   1.003001E-03   1.017815E-03   1.173959E-03   1.110007E-03   1.279775E-03   1.236986E-03   1.308279E-03   1.337246E-03   1.306692E-03   1.397032E-03   1.306494E-03   2.126962E-02
   2.126962E-02   6.460976E-04   7.467945E-04   7.303269E-04   8.027446E-04   7.378002E-04   7.434217E-04   7.602199E-04   7.666349E-04   8.587608E-04   7.842930E-04   8.690778E-04   8.493035E-04   8.124002E-04   6.850907E-04   7.354193E-04   8.319762E-04   7.988426E-04   6.411970E-04   6.189559E-04   6.965982E-04   8.026785E-04   8.831645E-04   8.606125E-04   7.646509E-04   7.742405E-04   8.040012E-04   8.219898E-04   7.689497E-04   7.733807E-04   7.829042E-04   7.790022E-04   6.932253E-04   8.008267E-04   7.397842E-04   7.655107E-04   7.254329E-04   6.681602E-04   6.002662E-04   6.378308E-04   6.406944E-04   2.126962E-02
   2.126962E-02   1.253718E-03   1.228190E-03   1.139702E-03   1.041359E-03   1.001546E-03   9.146447E-04   1.015831E-03   9.092878E-04   1.028793E-03   1.008490E-03   9.571694E-04   1.112454E-03   1.007432E-03   1.149556E-03   1.032100E-03   1.023767E-03   1.081767E-03   1.092547E-03   1.127863E-03   1.152201E-03   1.111594E-03   1.078527E-03   1.141752E-03   1.181829E-03   1.251668E-03   1.294060E-03   1.258678E-03   1.423222E-03   1.358608E-03   1.419783E-03   1.423883E-03   1.442268E-03   1.494184E-03   1.390286E-03   1.366610E-03   1.293134E-03   1.182160E-03   1.180771E-03   1.133749E-03   1.168404E-03   2.126962E-02
   2.126962E-02   5.796189E-04   5.409895E-04   4.939545E-04   5.275972E-04   6.117141E-04   5.861067E-04   5.568950E-04   4.798876E-04   4.512247E-04   5.174852E-04   5.628008E-04   5.824825E-04   5.717621E-04   5.320216E-04   5.552284E-04   4.437052E-04   4.837101E-04   3.517182E-04   2.933278E-04   2.166908E-04   1.607738E-04   2.596652E-04   2.578531E-04   2.458695E-04   2.954375E-04   2.704584E-04   2.463787E-04   2.748960E-04   2.274443E-04   3.347018E-04   3.292787E-04   3.417253E-04   2.823428E-04   2.510412E-04   1.692853E-04   2.492027E-04   1.998264E-04   1.074294E-04   2.279205E-04   1.848204E-04   2.126962E-02
   2.126962E-02   5.414128E-04   5.365784E-04   5.459364E-04   6.303906E-04   5.553474E-04   5.482710E-04   5.520406E-04   6.253512E-04   7.377340E-04   6.981854E-04   6.988468E-04   5.765171E-04   6.242070E-04   6.504757E-04   6.055570E-04   5.807432E-04   4.667201E-04   6.045054E-04   5.281263E-04   4.948010E-04   5.321539E-04   4.419989E-04   3.721275E-04   2.995709E-04   2.759343E-04   3.311239E-04   3.355681E-04   3.794089E-04   3.594098E-04   3.598661E-04   3.773720E-04   4.449948E-04   4.980349E-04   4.882999E-04   4.980746E-04   5.330203E-04   5.076245E-04   5.358509E-04   5.983351E-04   6.223023E-04   2.126962E-02
   2.126962E-02   1.001281E-03   9.303187E-04   1.031307E-03   9.409002E-04   1.083818E-03   1.048766E-03   1.036928E-03   9.989005E-04   9.180176E-04   8.878601E-04   9.541934E-04   1.051147E-03   1.025950E-03   1.051279E-03   1.107626E-03   1.191882E-03   1.341677E-03   1.268532E-03   1.325408E-03   1.211590E-03   1.296573E-03   1.316149E-03   1.411979E-03   1.402984E-03   1.316215E-03   1.366676E-03   1.241814E-03   1.196181E-03   1.084281E-03   1.106833E-03   1.059943E-03   1.009548E-03   9.359401E-04   9.795891E-04   9.683462E-04   1.043012E-03   1.147836E-03   1.173100E-03   1.085008E-03   1.192213E-03   2.126962E-02
   2.126962E-02   1.296573E-03   1.402786E-03   1.463498E-03   1.412243E-03   1.380895E-03   1.382020E-03   1.351399E-03   1.419915E-03   1.338569E-03   1.379440E-03   1.320911E-03   1.218931E-03   1.261919E-03   1.202927E-03   1.214037E-03   1.070855E-03   1.140032E-03   1.011069E-03   1.096846E-03   1.028860E-03   9.722481E-04   9.702641E-04   8.858099E-04   9.526723E-04   9.176869E-04   8.438143E-04   9.673542E-04   1.000422E-03   9.711239E-04   9.208614E-04   9.177530E-04   8.629934E-04   9.198032E-04   8.708634E-04   9.240358E-04   7.990410E-04   8.438805E-04   8.713925E-04   8.435498E-04   8.207333E-04   2.126962E-02
   2.126962E-02   8.290663E-04   8.079031E-04   7.661720E-04   8.092258E-04   7.340966E-04   8.748977E-04   8.495681E-04   8.456661E-04   8.163022E-04   8.272806E-04   9.032695E-04   9.563758E-04   9.895094E-04   1.060869E-03   1.103989E-03   1.155243E-03   1.107163E-03   1.155376E-03   1.133551E-03   1.171314E-03   1.072112E-03   1.153987E-03   1.172240E-03   1.302195E-03   1.306692E-03   1.270252E-03   1.293068E-03   1.207820E-03   1.254644E-03   1.207688E-03   1.167214E-03   1.187715E-03   1.162716E-03   1.211656E-03   1.084281E-03   1.068342E-03   1.030777E-03   1.085008E-03   1.052536E-03   1.055909E-03   2.126962E-02
   2.126962E-02   7.544662E-04   7.388584E-04   7.527467E-04   8.239739E-04   8.356136E-04   8.393833E-04   7.603522E-04   8.174927E-04   8.875956E-04   9.262845E-04   9.461910E-04   8.788658E-04   9.167611E-04   8.303889E-04   8.993676E-04   8.964576E-04   9.498946E-04   9.461249E-04   1.002472E-03   1.017021E-03   1.023635E-03   1.024032E-03   1.072575E-03   1.062985E-03   1.031637E-03   9.892448E-04   9.108089E-04   1.027140E-03   1.062985E-03   1.118075E-03   1.096780E-03   1.056239E-03   9.322366E-04   9.690737E-04   8.976480E-04   9.699335E-04   9.086926E-04   8.657711E-04   8.227834E-04   8.582979E-04   2.126962E-02
   2.126962E-02   1.010739E-03   1.198892E-03   1.094069E-03   1.131567E-03   1.230042E-03   1.202794E-03   1.403976E-03   1.378316E-03   1.382086E-03   1.366875E-03   1.266945E-03   1.340950E-03   1.354111E-03   1.209804E-03   1.202464E-03   1.131699E-03   1.071384E-03   1.024296E-03   1.016625E-03   9.809118E-04   9.967842E-04   9.270781E-04   9.452652E-04   9.676848E-04   9.533998E-04   1.079916E-03   1.083024E-03   1.079453E-03   1.142479E-03   1.063713E-03   1.139702E-03   9.983714E-04   9.953954E-04   8.736411E-04   7.999669E-04   7.752986E-04   6.954739E-04   7.393874E-04   6.143198E-04   6.509519E-04   2.126962E-02
   2.126962E-02   1.272037E-03   1.306427E-03   1.394784E-03   1.403778E-03   1.446898E-03   1.531550E-03   1.583202E-03   1.608267E-03   1.602778E-03   1.594114E-03   1.569247E-03   1.573744E-03   1.609127E-03   1.544976E-03   1.514686E-03   1.483801E-03   1.492663E-03   1.605026E-03   1.522093E-03   1.636440E-03   1.701252E-03   1.652776E-03   1.748076E-03   1.678370E-03   1.774530E-03   1.679494E-03   1.601786E-03   1.501658E-03   1.525003E-03   1.500335E-03   1.527053E-03   1.728632E-03   1.549208E-03   1.738751E-03   1.746092E-03   1.741264E-03   1.769636E-03   1.733063E-03   1.780019E-03   1.740999E-03   2.126962E-02
   2.126962E-02   9.821022E-04   1.058025E-03   1.002075E-03   1.091092E-03   8.969867E-04   9.388500E-04   8.784028E-04   1.003067E-03   9.943371E-04   9.474476E-04   1.021122E-03   8.690778E-04   8.743025E-04   8.396478E-04   8.257595E-04   8.085644E-04   8.229157E-04   8.653082E-04   9.645765E-04   9.897739E-04   1.112520E-03   1.133882E-03   1.139702E-03   1.018741E-03   1.009879E-03   9.173562E-04   8.616046E-04   8.761542E-04   9.619311E-04   9.059149E-04   7.777456E-04   7.735791E-04   7.415037E-04   8.399123E-04   7.961311E-04   7.236473E-04   7.912371E-04   7.098913E-04   8.850825E-04   8.905716E-04   2.126962E-02
   2.126962E-02   1.108750E-03   1.115761E-03   1.055843E-03   1.121316E-03   1.163775E-03   1.155772E-03   1.238375E-03   1.197305E-03   1.242806E-03   1.264432E-03   1.157889E-03   1.226537E-03   1.107626E-03   1.173959E-03   1.086000E-03   1.078395E-03   1.054983E-03   1.064837E-03   1.070855E-03   1.072971E-03   1.077270E-03   1.085669E-03   1.084281E-03   1.172571E-03   1.164965E-03   1.211921E-03   1.159674E-03   1.120192E-03   1.172967E-03   1.229843E-03   1.320250E-03   1.296904E-03   1.248559E-03   1.145125E-03   1.176142E-03   1.218270E-03   1.177134E-03   1.197900E-03   1.081569E-03   1.076609E-03   2.126962E-02
   2.126962E-02   8.658372E-04   7.494399E-04   7.404456E-04   7.303931E-04   6.764932E-04   6.173554E-04   6.064828E-04   5.607837E-04   6.399934E-04   6.653825E-04   7.171000E-04   7.893853E-04   8.524118E-04   1.007101E-03   1.088579E-03   1.070062E-03   1.137982E-03   1.167280E-03   1.163378E-03   1.147109E-03   1.120060E-03   1.043541E-03   1.200413E-03   1.089307E-03   1.132096E-03   1.179713E-03   1.190162E-03   1.302129E-03   1.134477E-03   1.189435E-03   1.060472E-03   1.050486E-03   1.070260E-03   1.156500E-03   1.304576E-03   1.475799E-03   1.551259E-03   1.653834E-03   1.547489E-03   1.614748E-03   2.126962E-02
   2.126962E-02   1.687033E-03   1.704824E-03   1.649204E-03   1.699665E-03   1.604431E-03   1.667259E-03   1.608796E-03   1.581945E-03   1.516207E-03   1.521762E-03   1.499806E-03   1.455561E-03   1.534328E-03   1.432216E-03   1.494449E-03   1.351002E-03   1.381424E-03   1.332352E-03   1.296177E-03   1.373091E-03   1.390815E-03   1.433274E-03   1.421767E-03   1.372496E-03   1.404968E-03   1.324019E-03   1.398421E-03   1.199223E-03   1.150283E-03   1.109280E-03   1.203985E-03   1.233811E-03   1.216286E-03   1.167148E-03   1.129847E-03   1.086198E-03   1.017154E-03   9.422229E-04   1.049758E-03   9.166287E-04   2.126962E-02
   2.126962E-02   1.207490E-03   1.215095E-03   1.241814E-03   1.243136E-03   1.263043E-03   1.193668E-03   1.212119E-03   1.197371E-03   1.192808E-03   1.186657E-03   1.154119E-03   1.287116E-03   1.181896E-03   1.276931E-03   1.251800E-03   1.305237E-03   1.277659E-03   1.364891E-03   1.407217E-03   1.376663E-03   1.398223E-03   1.349349E-03   1.443194E-03   1.510255E-03   1.480362E-03   1.538296E-03   1.524077E-03   1.537040E-03   1.690274E-03   1.668780E-03   1.630025E-03   1.561708E-03   1.610251E-03   1.586971E-03   1.549076E-03   1.535386E-03   1.535320E-03   1.555491E-03   1.464291E-03   1.462241E-03   2.126962E-02
   2.126962E-02   9.946018E-04   1.146712E-03   1.190890E-03   1.081701E-03   1.218799E-03   1.225677E-03   1.250014E-03   1.324086E-03   1.341942E-03   1.339693E-03   1.258678E-03   1.254247E-03   1.130112E-03   1.167875E-03   1.141289E-03   1.253057E-03   1.209606E-03   9.951970E-04   1.065631E-03   9.053197E-04   9.128591E-04   6.952094E-04   6.001868E-04   5.645600E-04   5.046617E-04   6.295507E-04   6.695490E-04   8.208655E-04   8.036043E-04   8.482453E-04   8.817757E-04   8.441450E-04   9.334931E-04   8.988385E-04   9.473815E-04   9.926838E-04   1.005911E-03   1.058885E-03   1.028000E-03   1.102864E-03   2.126962E-02
   2.126962E-02   1.471235E-03   1.365155E-03   1.374811E-03   1.412574E-03   1.429769E-03   1.551589E-03   1.424809E-03   1.499144E-03   1.403315E-03   1.485058E-03   1.544579E-03   1.546034E-03   1.715736E-03   1.726317E-03   1.771355E-03   1.730947E-03   1.579300E-03   1.622949E-03   1.582673E-03   1.603042E-03   1.519778E-03   1.566337E-03   1.484330E-03   1.556682E-03   1.571628E-03   1.395577E-03   1.514223E-03   1.430695E-03   1.451792E-03   1.488960E-03   1.438763E-03   1.536511E-03   1.566668E-03   1.481420E-03   1.494581E-03   1.435853E-03   1.425735E-03   1.389625E-03   1.364957E-03   1.331030E-03   2.126962E-02
   2.126962E-02   1.173629E-03   1.143074E-03   1.160666E-03   1.091622E-03   1.090497E-03   1.150151E-03   1.198892E-03   1.197371E-03   1.276998E-03   1.318993E-03   1.306361E-03   1.284140E-03   1.107891E-03   1.018410E-03   9.551854E-04   1.011268E-03   1.109346E-03   1.079585E-03   1.062654E-03   9.936097E-04   1.089108E-03   1.116753E-03   1.021783E-03   1.023569E-03   1.041028E-03   1.092415E-03   1.180904E-03   1.170124E-03   1.164238E-03   1.111991E-03   1.055909E-03   1.045790E-03   9.551193E-04   9.706609E-04   9.973133E-04   1.029785E-03   9.045261E-04   9.239036E-04   8.194105E-04   8.897780E-04   2.126962E-02
CONSTANT    1.000000E+00                           #vka2                          
INTERNAL               1  (42E15.6) -1 #hk layer 3                    
   2.126962E-02   1.056239E-03   1.066093E-03   9.840202E-04   9.653702E-04   9.717852E-04   9.430166E-04   9.235729E-04   9.293266E-04   9.227132E-04   9.202000E-04   8.339603E-04   8.737072E-04   8.035382E-04   8.022155E-04   8.634563E-04   7.607490E-04   7.879304E-04   7.498367E-04   8.721200E-04   7.871368E-04   7.979829E-04   7.745050E-04   8.279419E-04   8.754929E-04   7.190840E-04   8.142521E-04   7.926259E-04   9.606084E-04   9.293266E-04   9.299219E-04   9.873268E-04   9.545240E-04   1.097309E-03   9.485719E-04   8.799239E-04   7.536064E-04   6.799322E-04   7.274831E-04   6.089497E-04   6.540074E-04   2.126962E-02
   2.126962E-02   9.559790E-04   9.345513E-04   9.002273E-04   8.061175E-04   8.307858E-04   8.768817E-04   8.535361E-04   8.186831E-04   9.155045E-04   8.853470E-04   9.246972E-04   7.725871E-04   7.927582E-04   7.246393E-04   6.403505E-04   6.651841E-04   6.866118E-04   6.930269E-04   7.114785E-04   7.773488E-04   7.699417E-04   6.811226E-04   6.412896E-04   6.860828E-04   7.292688E-04   7.524821E-04   7.909064E-04   8.061836E-04   8.061175E-04   8.323069E-04   8.864713E-04   8.575042E-04   8.036705E-04   8.952672E-04   9.783987E-04   1.038912E-03   1.107031E-03   1.200942E-03   1.195718E-03   1.319324E-03   2.126962E-02
   2.126962E-02   8.877940E-04   8.125326E-04   8.484438E-04   8.702021E-04   8.631257E-04   9.018146E-04   8.447402E-04   9.625264E-04   8.465258E-04   9.241020E-04   9.307816E-04   9.705286E-04   1.128393E-03   1.083090E-03   1.198033E-03   1.212053E-03   1.271045E-03   1.182557E-03   1.188377E-03   1.098433E-03   1.181829E-03   1.312115E-03   1.301732E-03   1.403646E-03   1.475005E-03   1.379242E-03   1.483338E-03   1.266217E-03   1.329971E-03   1.160865E-03   1.046584E-03   1.082826E-03   1.029190E-03   1.117679E-03   9.710577E-04   9.816393E-04   8.797917E-04   8.058529E-04   8.350184E-04   7.504981E-04   2.126962E-02
   2.126962E-02   1.322829E-03   1.349547E-03   1.378911E-03   1.366478E-03   1.241020E-03   1.374414E-03   1.322234E-03   1.393395E-03   1.369388E-03   1.414095E-03   1.396966E-03   1.390286E-03   1.368925E-03   1.244790E-03   1.237846E-03   1.199884E-03   1.100682E-03   1.076940E-03   1.019667E-03   1.171182E-03   1.200942E-03   1.231100E-03   1.147836E-03   1.163775E-03   1.127665E-03   1.168669E-03   1.143603E-03   1.102005E-03   1.147439E-03   1.163510E-03   1.143670E-03   1.179515E-03   1.189501E-03   1.120390E-03   1.061001E-03   8.814450E-04   7.519530E-04   7.149837E-04   6.346299E-04   6.728558E-04   2.126962E-02
   2.126962E-02   1.010408E-03   1.043079E-03   9.474476E-04   9.599471E-04   9.084942E-04   7.811846E-04   8.114744E-04   6.202323E-04   7.628653E-04   6.638615E-04   7.417683E-04   7.861448E-04   7.081717E-04   7.899145E-04   6.799322E-04   7.475881E-04   7.216633E-04   7.352209E-04   7.422973E-04   5.535089E-04   5.123134E-04   4.756748E-04   6.692184E-04   6.497020E-04   7.067168E-04   7.727194E-04   7.335014E-04   9.149754E-04   9.385194E-04   1.004390E-03   9.599471E-04   9.012194E-04   9.425536E-04   9.391146E-04   8.785351E-04   9.255570E-04   8.149134E-04   9.026743E-04   7.209358E-04   8.394494E-04   2.126962E-02