# LPF package for  MODFLOW-2005, generated by Flopy.
         0    -1E+30         0  
         0
         0
   1.000000E+00
         0
         0
INTERNAL               1  (42E15.6) -1 #hk layer 1                    
   1.847807E+01   1.847807E+00   1.846947E+00   1.845955E+00   1.844765E+00   1.843376E+00   1.841921E+00   1.840268E+00   1.838482E+00   1.836564E+00   1.834514E+00   1.832332E+00   1.830083E+00   1.827702E+00   1.825189E+00   1.822676E+00   1.820031E+00   1.817319E+00   1.814541E+00   1.811764E+00   1.808920E+00   1.806010E+00   1.803166E+00   1.800256E+00   1.797346E+00   1.794502E+00   1.791593E+00   1.788815E+00   1.786037E+00   1.783326E+00   1.780614E+00   1.778035E+00   1.775522E+00   1.773075E+00   1.770694E+00   1.768445E+00   1.766263E+00   1.764147E+00   1.762229E+00   1.760311E+00   1.758591E+00   1.847807E+01
   1.847807E+01   1.817385E+00   1.816658E+00   1.815864E+00   1.815004E+00   1.813946E+00   1.812822E+00   1.811565E+00   1.810243E+00   1.808788E+00   1.807200E+00   1.805613E+00   1.803828E+00   1.802042E+00   1.800124E+00   1.798206E+00   1.796156E+00   1.794106E+00   1.791923E+00   1.789807E+00   1.787624E+00   1.785376E+00   1.783193E+00   1.780945E+00   1.778762E+00   1.776580E+00   1.774397E+00   1.772281E+00   1.770165E+00   1.768181E+00   1.766197E+00   1.764345E+00   1.762559E+00   1.760840E+00   1.759187E+00   1.757732E+00   1.756277E+00   1.755020E+00   1.753830E+00   1.752771E+00   1.751846E+00   1.847807E+01
   1.847807E+01   1.795891E+00   1.795296E+00   1.794569E+00   1.793841E+00   1.792981E+00   1.792122E+00   1.791262E+00   1.790270E+00   1.789278E+00   1.788154E+00   1.787095E+00   1.785905E+00   1.784715E+00   1.783458E+00   1.782201E+00   1.780879E+00   1.779490E+00   1.778167E+00   1.776778E+00   1.775323E+00   1.773935E+00   1.772480E+00   1.771091E+00   1.769636E+00   1.768247E+00   1.766858E+00   1.765469E+00   1.764147E+00   1.762824E+00   1.761567E+00   1.760311E+00   1.759187E+00   1.758062E+00   1.757070E+00   1.756078E+00   1.755152E+00   1.754359E+00   1.753631E+00   1.752970E+00   1.752375E+00   1.847807E+01
   1.847807E+01   1.780416E+00   1.779688E+00   1.779027E+00   1.778299E+00   1.777638E+00   1.776977E+00   1.776382E+00   1.775720E+00   1.775125E+00   1.774530E+00   1.773935E+00   1.773406E+00   1.772876E+00   1.772347E+00   1.771818E+00   1.771289E+00   1.770826E+00   1.770297E+00   1.769834E+00   1.769371E+00   1.768908E+00   1.768445E+00   1.767982E+00   1.767519E+00   1.767057E+00   1.766594E+00   1.766131E+00   1.765668E+00   1.765271E+00   1.764808E+00   1.764411E+00   1.763948E+00   1.763551E+00   1.763155E+00   1.762758E+00   1.762361E+00   1.761964E+00   1.761634E+00   1.761303E+00   1.761038E+00   1.847807E+01
   1.847807E+01   1.766065E+00   1.765006E+00   1.764081E+00   1.763155E+00   1.762361E+00   1.761634E+00   1.760906E+00   1.760311E+00   1.759716E+00   1.759253E+00   1.758856E+00   1.758459E+00   1.758194E+00   1.757930E+00   1.757732E+00   1.757599E+00   1.757533E+00   1.757533E+00   1.757533E+00   1.757533E+00   1.757599E+00   1.757732E+00   1.757798E+00   1.757930E+00   1.758128E+00   1.758261E+00   1.758459E+00   1.758591E+00   1.758790E+00   1.758988E+00   1.759120E+00   1.759253E+00   1.759451E+00   1.759583E+00   1.759716E+00   1.759782E+00   1.759914E+00   1.759980E+00   1.760112E+00   1.760179E+00   1.847807E+01
   1.847807E+01   1.765271E+00   1.763750E+00   1.762229E+00   1.760840E+00   1.759451E+00   1.758128E+00   1.756938E+00   1.755748E+00   1.754623E+00   1.753565E+00   1.752639E+00   1.751713E+00   1.750920E+00   1.750126E+00   1.749465E+00   1.748870E+00   1.748274E+00   1.747811E+00   1.747414E+00   1.747018E+00   1.746687E+00   1.746489E+00   1.746290E+00   1.746158E+00   1.746026E+00   1.746026E+00   1.745960E+00   1.746026E+00   1.746092E+00   1.746158E+00   1.746290E+00   1.746489E+00   1.746687E+00   1.746885E+00   1.747150E+00   1.747414E+00   1.747679E+00   1.747944E+00   1.748274E+00   1.748605E+00   1.847807E+01
   1.847807E+01   1.778961E+00   1.777109E+00   1.775323E+00   1.773472E+00   1.771686E+00   1.769966E+00   1.768247E+00   1.766528E+00   1.764874E+00   1.763287E+00   1.761766E+00   1.760245E+00   1.758790E+00   1.757401E+00   1.756144E+00   1.754888E+00   1.753697E+00   1.752573E+00   1.751581E+00   1.750589E+00   1.749729E+00   1.748936E+00   1.748208E+00   1.747547E+00   1.746952E+00   1.746489E+00   1.746092E+00   1.745695E+00   1.745430E+00   1.745232E+00   1.745166E+00   1.745100E+00   1.745100E+00   1.745166E+00   1.745364E+00   1.745563E+00   1.745893E+00   1.746224E+00   1.746621E+00   1.747084E+00   1.847807E+01
   1.847807E+01   1.789410E+00   1.787691E+00   1.785905E+00   1.784186E+00   1.782466E+00   1.780680E+00   1.778961E+00   1.777308E+00   1.775654E+00   1.774001E+00   1.772413E+00   1.770892E+00   1.769371E+00   1.767982E+00   1.766594E+00   1.765271E+00   1.764014E+00   1.762890E+00   1.761766E+00   1.760774E+00   1.759848E+00   1.758988E+00   1.758261E+00   1.757599E+00   1.757004E+00   1.756541E+00   1.756144E+00   1.755814E+00   1.755615E+00   1.755483E+00   1.755417E+00   1.755483E+00   1.755549E+00   1.755748E+00   1.756078E+00   1.756409E+00   1.756806E+00   1.757335E+00   1.757864E+00   1.758525E+00   1.847807E+01
   1.847807E+01   1.792849E+00   1.791460E+00   1.790071E+00   1.788617E+00   1.787228E+00   1.785773E+00   1.784384E+00   1.782995E+00   1.781606E+00   1.780217E+00   1.778895E+00   1.777638E+00   1.776382E+00   1.775125E+00   1.774001E+00   1.772876E+00   1.771818E+00   1.770826E+00   1.769900E+00   1.768974E+00   1.768181E+00   1.767453E+00   1.766792E+00   1.766197E+00   1.765668E+00   1.765271E+00   1.764874E+00   1.764610E+00   1.764411E+00   1.764213E+00   1.764147E+00   1.764147E+00   1.764213E+00   1.764345E+00   1.764543E+00   1.764808E+00   1.765139E+00   1.765535E+00   1.765932E+00   1.766461E+00   1.847807E+01
   1.847807E+01   1.789212E+00   1.788352E+00   1.787426E+00   1.786434E+00   1.785508E+00   1.784516E+00   1.783524E+00   1.782466E+00   1.781474E+00   1.780416E+00   1.779424E+00   1.778366E+00   1.777374E+00   1.776315E+00   1.775323E+00   1.774265E+00   1.773273E+00   1.772347E+00   1.771355E+00   1.770429E+00   1.769504E+00   1.768644E+00   1.767784E+00   1.766924E+00   1.766131E+00   1.765337E+00   1.764610E+00   1.763948E+00   1.763287E+00   1.762692E+00   1.762096E+00   1.761567E+00   1.761038E+00   1.760641E+00   1.760245E+00   1.759848E+00   1.759583E+00   1.759319E+00   1.759054E+00   1.758922E+00   1.847807E+01
   1.847807E+01   1.776382E+00   1.776117E+00   1.775919E+00   1.775654E+00   1.775390E+00   1.775059E+00   1.774662E+00   1.774265E+00   1.773868E+00   1.773339E+00   1.772810E+00   1.772281E+00   1.771620E+00   1.770959E+00   1.770297E+00   1.769504E+00   1.768776E+00   1.767916E+00   1.767057E+00   1.766131E+00   1.765205E+00   1.764279E+00   1.763287E+00   1.762295E+00   1.761237E+00   1.760179E+00   1.759120E+00   1.758062E+00   1.757004E+00   1.755946E+00   1.754888E+00   1.753830E+00   1.752771E+00   1.751779E+00   1.750787E+00   1.749861E+00   1.748936E+00   1.748076E+00   1.747216E+00   1.746423E+00   1.847807E+01
   1.847807E+01   1.768313E+00   1.768776E+00   1.769173E+00   1.769570E+00   1.769900E+00   1.770231E+00   1.770496E+00   1.770760E+00   1.770959E+00   1.771091E+00   1.771157E+00   1.771157E+00   1.771091E+00   1.770959E+00   1.770826E+00   1.770562E+00   1.770231E+00   1.769834E+00   1.769437E+00   1.768908E+00   1.768379E+00   1.767718E+00   1.767057E+00   1.766329E+00   1.765535E+00   1.764742E+00   1.763882E+00   1.763022E+00   1.762163E+00   1.761237E+00   1.760245E+00   1.759319E+00   1.758393E+00   1.757401E+00   1.756475E+00   1.755549E+00   1.754623E+00   1.753697E+00   1.752838E+00   1.752044E+00   1.847807E+01
   1.847807E+01   1.783193E+00   1.783723E+00   1.784252E+00   1.784781E+00   1.785244E+00   1.785707E+00   1.786103E+00   1.786434E+00   1.786699E+00   1.786963E+00   1.787162E+00   1.787228E+00   1.787294E+00   1.787294E+00   1.787228E+00   1.787029E+00   1.786831E+00   1.786566E+00   1.786236E+00   1.785839E+00   1.785442E+00   1.784979E+00   1.784450E+00   1.783855E+00   1.783260E+00   1.782664E+00   1.782003E+00   1.781342E+00   1.780614E+00   1.779953E+00   1.779225E+00   1.778498E+00   1.777837E+00   1.777109E+00   1.776448E+00   1.775786E+00   1.775125E+00   1.774464E+00   1.773868E+00   1.773273E+00   1.847807E+01
   1.847807E+01   1.817253E+00   1.817650E+00   1.817980E+00   1.818245E+00   1.818443E+00   1.818576E+00   1.818576E+00   1.818509E+00   1.818311E+00   1.818113E+00   1.817716E+00   1.817319E+00   1.816790E+00   1.816129E+00   1.815467E+00   1.814674E+00   1.813814E+00   1.812888E+00   1.811896E+00   1.810838E+00   1.809780E+00   1.808589E+00   1.807465E+00   1.806275E+00   1.805018E+00   1.803828E+00   1.802571E+00   1.801381E+00   1.800190E+00   1.799066E+00   1.797942E+00   1.796817E+00   1.795759E+00   1.794767E+00   1.793841E+00   1.792981E+00   1.792122E+00   1.791328E+00   1.790667E+00   1.790005E+00   1.847807E+01
   1.847807E+01   1.837953E+00   1.838019E+00   1.837953E+00   1.837821E+00   1.837556E+00   1.837160E+00   1.836697E+00   1.836101E+00   1.835440E+00   1.834646E+00   1.833787E+00   1.832729E+00   1.831670E+00   1.830480E+00   1.829223E+00   1.827901E+00   1.826446E+00   1.824991E+00   1.823470E+00   1.821882E+00   1.820295E+00   1.818642E+00   1.816988E+00   1.815335E+00   1.813748E+00   1.812094E+00   1.810507E+00   1.808920E+00   1.807399E+00   1.805944E+00   1.804555E+00   1.803232E+00   1.801976E+00   1.800785E+00   1.799727E+00   1.798735E+00   1.797809E+00   1.797016E+00   1.796354E+00   1.795759E+00   1.847807E+01
   1.847807E+01   1.820295E+00   1.819634E+00   1.818972E+00   1.818311E+00   1.817517E+00   1.816724E+00   1.815864E+00   1.815004E+00   1.814078E+00   1.813086E+00   1.812094E+00   1.811102E+00   1.810110E+00   1.809052E+00   1.807994E+00   1.806936E+00   1.805878E+00   1.804820E+00   1.803828E+00   1.802769E+00   1.801844E+00   1.800851E+00   1.799926E+00   1.799066E+00   1.798206E+00   1.797412E+00   1.796685E+00   1.796024E+00   1.795428E+00   1.794899E+00   1.794370E+00   1.793973E+00   1.793643E+00   1.793378E+00   1.793180E+00   1.793048E+00   1.792981E+00   1.793048E+00   1.793114E+00   1.793246E+00   1.847807E+01
   1.847807E+01   1.789675E+00   1.788749E+00   1.787889E+00   1.787029E+00   1.786236E+00   1.785442E+00   1.784648E+00   1.783921E+00   1.783193E+00   1.782532E+00   1.781937E+00   1.781342E+00   1.780813E+00   1.780350E+00   1.779953E+00   1.779622E+00   1.779292E+00   1.779093E+00   1.778895E+00   1.778829E+00   1.778762E+00   1.778762E+00   1.778895E+00   1.779027E+00   1.779225E+00   1.779490E+00   1.779887E+00   1.780284E+00   1.780680E+00   1.781209E+00   1.781739E+00   1.782400E+00   1.782995E+00   1.783723E+00   1.784450E+00   1.785177E+00   1.785971E+00   1.786831E+00   1.787624E+00   1.788484E+00   1.847807E+01
   1.847807E+01   1.784516E+00   1.784119E+00   1.783789E+00   1.783392E+00   1.783127E+00   1.782797E+00   1.782598E+00   1.782334E+00   1.782135E+00   1.781937E+00   1.781805E+00   1.781672E+00   1.781606E+00   1.781474E+00   1.781474E+00   1.781408E+00   1.781408E+00   1.781474E+00   1.781474E+00   1.781606E+00   1.781672E+00   1.781805E+00   1.781937E+00   1.782135E+00   1.782334E+00   1.782598E+00   1.782863E+00   1.783193E+00   1.783458E+00   1.783855E+00   1.784186E+00   1.784582E+00   1.784979E+00   1.785442E+00   1.785905E+00   1.786368E+00   1.786831E+00   1.787294E+00   1.787823E+00   1.788286E+00   1.847807E+01
   1.847807E+01   1.792981E+00   1.792981E+00   1.793048E+00   1.793114E+00   1.793180E+00   1.793312E+00   1.793378E+00   1.793444E+00   1.793510E+00   1.793577E+00   1.793643E+00   1.793643E+00   1.793643E+00   1.793643E+00   1.793643E+00   1.793577E+00   1.793444E+00   1.793378E+00   1.793246E+00   1.793048E+00   1.792849E+00   1.792651E+00   1.792386E+00   1.792122E+00   1.791857E+00   1.791593E+00   1.791262E+00   1.790931E+00   1.790601E+00   1.790270E+00   1.789939E+00   1.789609E+00   1.789278E+00   1.788947E+00   1.788617E+00   1.788286E+00   1.788021E+00   1.787691E+00   1.787360E+00   1.787095E+00   1.847807E+01
   1.847807E+01   1.784847E+00   1.784781E+00   1.784781E+00   1.784781E+00   1.784781E+00   1.784847E+00   1.784913E+00   1.785045E+00   1.785111E+00   1.785177E+00   1.785310E+00   1.785376E+00   1.785442E+00   1.785508E+00   1.785508E+00   1.785508E+00   1.785442E+00   1.785442E+00   1.785310E+00   1.785244E+00   1.785045E+00   1.784847E+00   1.784648E+00   1.784384E+00   1.784119E+00   1.783855E+00   1.783524E+00   1.783127E+00   1.782730E+00   1.782334E+00   1.781937E+00   1.781540E+00   1.781077E+00   1.780614E+00   1.780217E+00   1.779754E+00   1.779292E+00   1.778829E+00   1.778432E+00   1.777969E+00   1.847807E+01
CONSTANT    1.000000E+00                           #vka1                          
