# Name file for MT3DMS, generated by Flopy version 3.3.0.
LIST              16  td3_mt.list
FTL               10  mt3d_link.ftl 
BTN               31  td3_mt.btn
ADV               32  td3_mt.adv
DSP               33  td3_mt.dsp
SSM               34  td3_mt.ssm
GCG               35  td3_mt.gcg
