# Name file for MODFLOW-2005, generated by Flopy version 3.3.0.
#xll:0.0; yll:0.0; rotation:0.0; units:centimeters; lenuni:3; start_datetime:1-1-1970
LIST               2  td2_mf.list
DIS               11  td2_mf.dis
BAS6              13  td2_mf.bas
LPF               15  td2_mf.lpf
WEL               20  td2_mf.wel
PCG               27  td2_mf.pcg
LMT6              30  td2_mf.lmt6
OC                14  td2_mf.oc
DATA(BINARY)      51  td2_mf.hds REPLACE
