# LPF package for  MODFLOW-2005, generated by Flopy.
         0    -1E+30         0  
         0         0         0         0         0         0         0         0         0         0         0         0         0         0         0         0         0         0         0         0
         0         0         0         0         0         0         0         0         0         0         0         0         0         0         0         0         0         0         0         0
   1.000000E+00   1.000000E+00   1.000000E+00   1.000000E+00   1.000000E+00   1.000000E+00   1.000000E+00   1.000000E+00   1.000000E+00   1.000000E+00   1.000000E+00   1.000000E+00   1.000000E+00   1.000000E+00   1.000000E+00   1.000000E+00   1.000000E+00   1.000000E+00   1.000000E+00   1.000000E+00
         0         0         0         0         0         0         0         0         0         0         0         0         0         0         0         0         0         0         0         0
         0         0         0         0         0         0         0         0         0         0         0         0         0         0         0         0         0         0         0         0
INTERNAL               1  (42E15.6) -1 #hk layer 1                    
   1.172174E-01   8.268177E-03   8.059852E-03   7.710660E-03   8.375976E-03   7.909064E-03   7.981151E-03   8.165668E-03   7.938826E-03   7.266895E-03   7.749018E-03   7.747695E-03   8.181540E-03   8.239739E-03   8.418303E-03   8.264869E-03   8.227173E-03   7.382631E-03   8.234448E-03   8.184185E-03   8.193444E-03   8.758897E-03   9.067747E-03   9.222502E-03   9.004258E-03   9.054520E-03   9.329640E-03   9.510851E-03   9.297235E-03   8.948043E-03   9.163642E-03   8.532716E-03   8.615385E-03   8.854792E-03   9.206630E-03   9.075683E-03   1.024296E-02   1.075948E-02   1.075485E-02   1.030248E-02   1.025024E-02   1.172174E-01
   1.172174E-01   8.125326E-03   7.915678E-03   7.593601E-03   8.133261E-03   8.108792E-03   8.124002E-03   8.680196E-03   7.919646E-03   7.558550E-03   7.931550E-03   7.721903E-03   8.282727E-03   8.321084E-03   8.285372E-03   7.813169E-03   8.129293E-03   7.169677E-03   7.475220E-03   7.946761E-03   8.313148E-03   8.922250E-03   9.311123E-03   8.818419E-03   9.100153E-03   9.046583E-03   9.220518E-03   9.501591E-03   9.414955E-03   9.003596E-03   9.160996E-03   9.377258E-03   8.576365E-03   8.797255E-03   8.215269E-03   9.168933E-03   1.051412E-02   1.124623E-02   1.109346E-02   1.017220E-02   1.068607E-02   1.172174E-01
   1.172174E-01   7.606828E-03   7.971231E-03   7.647171E-03   7.451411E-03   7.713967E-03   7.972554E-03   8.273467E-03   7.735791E-03   8.002976E-03   7.995701E-03   7.867400E-03   8.135245E-03   8.134584E-03   7.908403E-03   7.557889E-03   7.590295E-03   6.901831E-03   7.286736E-03   7.966602E-03   8.393832E-03   9.002934E-03   9.612698E-03   8.892490E-03   8.995660E-03   9.317736E-03   9.038648E-03   9.346174E-03   9.647088E-03   9.202001E-03   9.215227E-03   9.489026E-03   8.654404E-03   8.467903E-03   7.821105E-03   9.095524E-03   1.046914E-02   1.119927E-02   1.087786E-02   1.040764E-02   9.981069E-03   1.172174E-01
   1.172174E-01   7.716612E-03   8.118050E-03   8.210639E-03   6.930931E-03   7.735791E-03   7.362791E-03   8.034721E-03   7.883933E-03   8.596866E-03   8.104824E-03   7.581036E-03   8.162361E-03   7.918323E-03   7.963295E-03   7.435539E-03   7.459348E-03   7.256314E-03   7.267557E-03   7.711983E-03   8.202703E-03   8.830323E-03   9.534659E-03   9.160996E-03   8.923572E-03   8.995660E-03   9.464555E-03   9.303848E-03   9.058488E-03   9.065763E-03   9.342868E-03   9.492332E-03   8.230479E-03   7.964618E-03   7.545984E-03   8.958625E-03   1.044732E-02   1.055181E-02   1.043872E-02   1.042880E-02   1.022312E-02   1.172174E-01
   1.172174E-01   8.182863E-03   8.672922E-03   8.499648E-03   6.970611E-03   6.996404E-03   7.449428E-03   8.320423E-03   7.887240E-03   8.760219E-03   8.228496E-03   7.889885E-03   7.829041E-03   8.090936E-03   7.918985E-03   7.901128E-03   7.877320E-03   7.221262E-03   7.200099E-03   7.194808E-03   8.392510E-03   8.346216E-03   9.013516E-03   9.103459E-03   9.645103E-03   8.947382E-03   9.353450E-03   9.508866E-03   8.651759E-03   8.769479E-03   9.223825E-03   9.055181E-03   8.174265E-03   8.026123E-03   7.960649E-03   8.717232E-03   1.017947E-02   1.057364E-02   1.030513E-02   1.064440E-02   1.088050E-02   1.172174E-01
   1.172174E-01   8.135245E-03   8.418964E-03   8.077047E-03   7.084363E-03   6.532137E-03   7.557889E-03   8.596866E-03   8.312487E-03   7.990411E-03   8.119374E-03   8.094242E-03   8.161038E-03   8.587608E-03   8.613400E-03   8.511553E-03   7.895176E-03   7.449428E-03   7.226553E-03   7.656429E-03   7.969908E-03   8.238416E-03   9.157029E-03   9.291283E-03   1.022444E-02   9.010871E-03   9.373290E-03   9.318397E-03   8.814450E-03   8.324391E-03   8.952010E-03   8.508908E-03   7.969908E-03   8.013558E-03   8.229157E-03   8.878601E-03   9.549869E-03   1.038780E-02   1.070128E-02   1.077138E-02   1.063051E-02   1.172174E-01
   1.172174E-01   8.715248E-03   8.170959E-03   7.375356E-03   7.204729E-03   6.786756E-03   7.606167E-03   8.112098E-03   8.647129E-03   7.602860E-03   7.692804E-03   8.244368E-03   8.698053E-03   8.706651E-03   8.633241E-03   8.108792E-03   7.719257E-03   7.432232E-03   7.303270E-03   7.952052E-03   7.803910E-03   7.958004E-03   8.896458E-03   9.459265E-03   9.612037E-03   9.817054E-03   9.389162E-03   9.284007E-03   8.965238E-03   8.836936E-03   8.765510E-03   8.044641E-03   8.338279E-03   7.696772E-03   8.565784E-03   9.278055E-03   9.737032E-03   9.834250E-03   1.073038E-02   1.117282E-02   1.022709E-02   1.172174E-01
   1.172174E-01   8.604803E-03   7.714628E-03   7.365436E-03   7.009631E-03   7.589633E-03   7.696110E-03   8.051916E-03   8.316455E-03   8.155747E-03   7.867400E-03   8.127971E-03   8.950688E-03   8.520812E-03   8.839581E-03   8.190799E-03   7.847559E-03   7.550613E-03   7.486463E-03   7.986442E-03   7.770843E-03   7.557227E-03   8.161038E-03   9.779357E-03   9.793246E-03   1.010672E-02   9.567065E-03   9.540611E-03   9.088249E-03   9.630554E-03   8.285372E-03   7.813169E-03   8.445418E-03   8.407721E-03   7.885917E-03   8.700037E-03   1.002339E-02   9.967842E-03   1.061200E-02   1.103790E-02   1.067218E-02   1.172174E-01
   1.172174E-01   8.311165E-03   7.609474E-03   7.762245E-03   7.583020E-03   7.663043E-03   7.801926E-03   8.256272E-03   8.059852E-03   8.616046E-03   8.249659E-03   8.393171E-03   8.840905E-03   9.203323E-03   8.675567E-03   8.287355E-03   7.801926E-03   7.640557E-03   7.830364E-03   7.524821E-03   7.752325E-03   7.606828E-03   8.143843E-03   9.506882E-03   9.844170E-03   9.812425E-03   9.869962E-03   1.006969E-02   8.834952E-03   9.679493E-03   8.600835E-03   8.217253E-03   8.306535E-03   8.649775E-03   7.782086E-03   8.396478E-03   9.670235E-03   1.055644E-02   1.080246E-02   1.112719E-02   1.047642E-02   1.172174E-01
   1.172174E-01   8.479808E-03   7.455380E-03   7.776795E-03   7.730500E-03   7.772165E-03   7.267557E-03   7.873352E-03   7.989749E-03   8.473194E-03   8.444095E-03   7.940809E-03   8.705989E-03   9.385194E-03   8.584962E-03   8.254289E-03   7.745712E-03   7.530773E-03   7.771504E-03   7.850866E-03   7.479849E-03   8.000992E-03   8.308519E-03   8.757574E-03   1.000488E-02   9.762824E-03   1.005051E-02   9.989667E-03   9.498945E-03   9.397098E-03   8.936800E-03   9.004258E-03   8.561815E-03   8.461951E-03   8.088290E-03   8.890505E-03   9.160996E-03   1.069995E-02   1.131567E-02   1.107957E-02   1.001017E-02   1.172174E-01
   1.172174E-01   8.433513E-03   7.762907E-03   7.897821E-03   7.846897E-03   7.851527E-03   7.028149E-03   7.280784E-03   8.172942E-03   8.238416E-03   8.215269E-03   8.146488E-03   8.625304E-03   9.169594E-03   8.684826E-03   8.293308E-03   7.611458E-03   6.936883E-03   7.846236E-03   7.956682E-03   7.544000E-03   7.709337E-03   8.383913E-03   8.202703E-03   9.218534E-03   9.292605E-03   9.538626E-03   1.001215E-02   9.608069E-03   9.024098E-03   8.649775E-03   8.875295E-03   9.115363E-03   8.285372E-03   8.159716E-03   9.051213E-03   9.930145E-03   1.076212E-02   1.135006E-02   1.132691E-02   1.011797E-02   1.172174E-01
   1.172174E-01   8.114744E-03   7.937502E-03   7.770181E-03   7.434216E-03   7.576406E-03   6.931592E-03   7.173645E-03   7.997024E-03   7.702062E-03   7.665688E-03   8.210639E-03   8.838920E-03   8.831645E-03   8.651097E-03   8.295953E-03   7.902451E-03   7.307899E-03   7.730500E-03   7.867400E-03   7.801265E-03   7.782086E-03   8.610755E-03   8.303228E-03   8.756913E-03   9.006903E-03   9.968503E-03   9.954615E-03   9.127268E-03   8.628611E-03   8.591576E-03   8.536684E-03   8.636547E-03   8.770140E-03   8.354813E-03   9.217873E-03   1.010672E-02   1.051676E-02   1.131765E-02   1.163179E-02   1.052999E-02   1.172174E-01
   1.172174E-01   7.883933E-03   7.626007E-03   7.528789E-03   7.456702E-03   7.185549E-03   7.174968E-03   6.806597E-03   7.743066E-03   7.506965E-03   7.344934E-03   8.073078E-03   8.959286E-03   9.162981E-03   8.686149E-03   8.382590E-03   7.648493E-03   7.491092E-03   8.015541E-03   7.756955E-03   8.163684E-03   8.334973E-03   8.732443E-03   8.664324E-03   8.886538E-03   9.312445E-03   9.604100E-03   9.976439E-03   9.224487E-03   8.489067E-03   8.503617E-03   8.690778E-03   8.527425E-03   8.685487E-03   8.582979E-03   8.780722E-03   9.766792E-03   1.063448E-02   1.094465E-02   1.158815E-02   1.079387E-02   1.172174E-01
   1.172174E-01   7.803249E-03   7.649154E-03   7.545984E-03   6.938205E-03   7.114124E-03   7.067829E-03   7.206712E-03   7.562518E-03   7.149175E-03   7.549291E-03   8.229818E-03   8.903733E-03   8.455999E-03   8.723184E-03   8.358120E-03   7.442153E-03   7.397181E-03   8.161038E-03   7.684867E-03   7.751002E-03   8.610094E-03   8.336295E-03   8.607448E-03   8.835614E-03   9.663622E-03   9.854752E-03   1.007961E-02   9.422230E-03   8.655727E-03   8.678874E-03   9.289298E-03   8.746332E-03   8.604142E-03   8.294631E-03   8.842227E-03   9.902368E-03   1.089902E-02   1.075683E-02   1.102335E-02   1.150746E-02   1.172174E-01
   1.172174E-01   7.909064E-03   7.617410E-03   6.959368E-03   6.445434E-03   7.102881E-03   7.311206E-03   7.711321E-03   7.923614E-03   7.391890E-03   7.839623E-03   8.679535E-03   8.781383E-03   8.709957E-03   8.928863E-03   8.679535E-03   8.300583E-03   7.549291E-03   8.006283E-03   7.556566E-03   7.993056E-03   8.133923E-03   8.332989E-03   8.698053E-03   8.781383E-03   9.668913E-03   9.796552E-03   9.701318E-03   8.926218E-03   9.123300E-03   9.061795E-03   9.093540E-03   8.491713E-03   8.396478E-03   8.171620E-03   8.786012E-03   9.609391E-03   1.065763E-02   1.110338E-02   1.088050E-02   1.119993E-02   1.172174E-01
   1.172174E-01   7.601538E-03   7.467945E-03   7.159757E-03   6.400066E-03   7.127351E-03   7.305253E-03   7.578390E-03   8.172281E-03   8.055222E-03   8.011574E-03   8.175588E-03   8.761543E-03   9.104782E-03   9.647749E-03   8.789320E-03   8.726491E-03   8.139214E-03   7.844253E-03   7.882611E-03   8.440128E-03   8.014219E-03   8.262886E-03   8.957301E-03   9.321043E-03   9.347497E-03   9.654363E-03   9.377919E-03   9.477122E-03   9.054520E-03   9.278055E-03   9.107428E-03   8.383913E-03   8.389865E-03   8.195428E-03   9.302526E-03   9.766792E-03   1.051610E-02   1.099888E-02   1.077072E-02   1.119729E-02   1.172174E-01
   1.172174E-01   8.028769E-03   7.383293E-03   7.395858E-03   6.703427E-03   6.745092E-03   7.400488E-03   7.520853E-03   7.811846E-03   7.937502E-03   8.297276E-03   8.466581E-03   8.661018E-03   8.870004E-03   1.013318E-02   9.324349E-03   8.617369E-03   8.310503E-03   8.382590E-03   8.116066E-03   9.203323E-03   8.494358E-03   8.574381E-03   9.278717E-03   9.583598E-03   9.606084E-03   9.528046E-03   9.545902E-03   9.778035E-03   9.098830E-03   9.231100E-03   9.223164E-03   8.835614E-03   8.289340E-03   8.754929E-03   9.351465E-03   9.820361E-03   1.024429E-02   1.086595E-02   1.070789E-02   1.109147E-02   1.172174E-01
   1.172174E-01   8.764849E-03   7.450089E-03   7.295995E-03   7.521514E-03   7.084363E-03   6.891249E-03   7.939487E-03   7.730500E-03   8.188815E-03   8.319100E-03   8.557186E-03   8.937461E-03   8.860745E-03   9.665606E-03   9.265490E-03   8.498326E-03   8.325714E-03   9.051874E-03   8.707973E-03   9.114702E-03   8.598190E-03   8.782705E-03   9.397098E-03   9.575001E-03   9.699996E-03   9.850783E-03   9.752903E-03   9.985698E-03   9.358078E-03   8.655727E-03   8.815112E-03   9.000950E-03   9.156368E-03   9.100814E-03   9.360724E-03   9.391807E-03   1.031836E-02   1.130377E-02   1.050023E-02   1.072112E-02   1.172174E-01
   1.172174E-01   8.596866E-03   7.735130E-03   7.036746E-03   7.829041E-03   7.112801E-03   7.130657E-03   8.012235E-03   8.260241E-03   8.560493E-03   8.153102E-03   8.457323E-03   8.769479E-03   9.636506E-03   8.984417E-03   9.461249E-03   8.743024E-03   8.647129E-03   9.159674E-03   9.147770E-03   9.024098E-03   8.746332E-03   9.417600E-03   9.741661E-03   9.844170E-03   1.005382E-02   1.039706E-02   1.022775E-02   9.763485E-03   9.397759E-03   8.717232E-03   8.883230E-03   9.574340E-03   9.680817E-03   8.914975E-03   9.365354E-03   9.430165E-03   9.935436E-03   1.033423E-02   1.049229E-02   1.023040E-02   1.172174E-01
   1.172174E-01   8.502956E-03   7.834332E-03   7.501013E-03   7.735791E-03   7.722564E-03   8.211301E-03   8.518828E-03   8.534700E-03   8.657711E-03   8.887860E-03   8.661679E-03   8.885215E-03   9.622618E-03   9.430165E-03   9.621956E-03   9.014839E-03   8.748315E-03   8.541975E-03   9.545902E-03   8.726491E-03   9.273426E-03   9.459927E-03   9.781342E-03   9.527383E-03   1.011334E-02   1.071781E-02   1.050949E-02   1.001943E-02   9.281362E-03   9.290621E-03   9.225148E-03   9.951308E-03   9.721820E-03   8.842227E-03   9.538626E-03   9.690736E-03   1.007829E-02   9.966519E-03   1.006241E-02   9.837557E-03   1.172174E-01
CONSTANT    1.000000E+00                           #vka1                          
INTERNAL               1  (42E15.6) -1 #hk layer 2                    
   1.172174E-01   7.980490E-03   7.956021E-03   7.983797E-03   8.003637E-03   8.474518E-03   8.422933E-03   8.649114E-03   7.862770E-03   7.625346E-03   7.612781E-03   8.013558E-03   8.356798E-03   8.408383E-03   8.190137E-03   8.545943E-03   8.293970E-03   7.258298E-03   8.012896E-03   8.440128E-03   8.446080E-03   8.887860E-03   9.125945E-03   8.748977E-03   8.430207E-03   8.918282E-03   9.574340E-03   9.336255E-03   9.453974E-03   9.112719E-03   8.625304E-03   8.739718E-03   8.817757E-03   8.926880E-03   9.114041E-03   9.305171E-03   1.011334E-02   1.115562E-02   1.114372E-02   1.094862E-02   1.043343E-02   1.172174E-01
   1.172174E-01   7.885256E-03   7.805233E-03   7.898482E-03   8.172942E-03   8.095564E-03   8.170959E-03   8.512214E-03   7.909064E-03   8.446080E-03   8.671599E-03   7.713305E-03   8.385235E-03   8.673583E-03   8.297937E-03   7.857479E-03   8.112759E-03   7.411069E-03   7.606828E-03   8.281403E-03   8.697391E-03   9.010871E-03   8.971190E-03   8.743024E-03   9.024759E-03   8.642499E-03   9.422891E-03   9.392469E-03   9.423552E-03   8.975158E-03   8.844211E-03   8.893812E-03   8.737072E-03   9.086926E-03   8.552557E-03   9.157029E-03   1.037259E-02   1.107891E-02   1.097309E-02   1.039441E-02   1.090299E-02   1.172174E-01
   1.172174E-01   8.044641E-03   8.365395E-03   7.865416E-03   7.942793E-03   7.077750E-03   7.731823E-03   8.414996E-03   8.188815E-03   8.315132E-03   9.098830E-03   7.844253E-03   7.970570E-03   8.309841E-03   8.110114E-03   7.481172E-03   7.518869E-03   7.266234E-03   7.467945E-03   7.982474E-03   8.598190E-03   9.102798E-03   9.248295E-03   8.912330E-03   9.030050E-03   8.798578E-03   8.952673E-03   9.420907E-03   9.194725E-03   9.081635E-03   9.332286E-03   9.250940E-03   8.766172E-03   8.799900E-03   8.487083E-03   9.315752E-03   1.053660E-02   1.048898E-02   1.057628E-02   1.021386E-02   1.052007E-02   1.172174E-01
   1.172174E-01   8.094242E-03   8.627289E-03   8.132600E-03   7.517546E-03   7.368082E-03   7.316496E-03   8.358120E-03   8.776092E-03   8.746993E-03   8.834952E-03   7.810524E-03   8.449386E-03   7.891869E-03   8.024801E-03   7.762245E-03   7.533418E-03   7.101558E-03   7.384615E-03   7.954697E-03   8.277436E-03   9.176208E-03   9.207292E-03   8.757574E-03   8.840243E-03   8.960608E-03   8.494358E-03   8.946720E-03   8.901748E-03   9.176208E-03   9.402389E-03   9.264167E-03   7.910388E-03   8.393171E-03   8.323730E-03   9.053197E-03   1.003067E-02   1.015434E-02   1.076940E-02   1.037523E-02   1.030513E-02   1.172174E-01
   1.172174E-01   8.193444E-03   8.639854E-03   8.594221E-03   7.752325E-03   7.378663E-03   7.344273E-03   8.222544E-03   8.709296E-03   8.940106E-03   8.679535E-03   8.189476E-03   8.593560E-03   8.357459E-03   7.858140E-03   7.859464E-03   7.692142E-03   7.279461E-03   7.518869E-03   7.639896E-03   8.358120E-03   8.773447E-03   9.144464E-03   8.815112E-03   8.932832E-03   9.058488E-03   8.805852E-03   9.389162E-03   8.549250E-03   8.811143E-03   8.959286E-03   8.797917E-03   7.730500E-03   8.150456E-03   8.228496E-03   9.026743E-03   1.022974E-02   1.023304E-02   1.033092E-02   1.074889E-02   1.036002E-02   1.172174E-01
   1.172174E-01   8.606787E-03   8.310503E-03   8.301244E-03   7.414376E-03   7.069152E-03   7.578390E-03   8.844872E-03   8.310503E-03   8.223866E-03   8.969868E-03   8.592899E-03   8.448063E-03   8.337618E-03   8.173604E-03   7.966602E-03   8.129293E-03   7.760261E-03   7.399165E-03   7.809201E-03   8.186831E-03   8.391188E-03   9.081635E-03   9.120654E-03   9.532674E-03   9.506221E-03   9.727772E-03   9.390485E-03   8.647129E-03   8.475840E-03   8.904394E-03   8.331666E-03   7.940148E-03   8.282065E-03   8.316455E-03   9.152399E-03   9.813086E-03   1.002935E-02   1.019799E-02   1.089241E-02   1.051544E-02   1.172174E-01
   1.172174E-01   8.711942E-03   8.030091E-03   7.721903E-03   7.678254E-03   7.652462E-03   7.796635E-03   8.545281E-03   8.563138E-03   8.096226E-03   8.247674E-03   8.681519E-03   8.725168E-03   8.592899E-03   8.547927E-03   8.018848E-03   7.994378E-03   7.572438E-03   7.365436E-03   7.363452E-03   8.020832E-03   7.823750E-03   8.794609E-03   9.031372E-03   9.863349E-03   1.009085E-02   9.694705E-03   9.394453E-03   9.022114E-03   8.816434E-03   8.837597E-03   7.943454E-03   8.360765E-03   8.278758E-03   8.598851E-03   8.898442E-03   9.868640E-03   1.024693E-02   1.060869E-02   1.094068E-02   1.045658E-02   1.172174E-01
   1.172174E-01   8.091597E-03   8.081015E-03   7.342950E-03   7.494399E-03   8.110776E-03   8.047948E-03   8.208655E-03   8.241722E-03   8.342247E-03   7.877981E-03   8.700037E-03   9.330302E-03   8.879262E-03   8.809160E-03   8.258256E-03   7.852188E-03   7.686190E-03   7.565825E-03   7.426280E-03   8.000992E-03   7.758938E-03   8.637209E-03   9.107428E-03   1.005249E-02   1.014574E-02   1.028529E-02   9.697351E-03   9.327657E-03   9.119993E-03   8.805852E-03   8.017526E-03   8.354813E-03   8.350184E-03   8.051255E-03   9.010210E-03   9.930806E-03   1.011731E-02   1.045459E-02   1.074889E-02   1.059149E-02   1.172174E-01
   1.172174E-01   8.366718E-03   8.099533E-03   7.634605E-03   7.815153E-03   7.734469E-03   8.582317E-03   8.039350E-03   7.741743E-03   8.273467E-03   8.335634E-03   8.639193E-03   9.426198E-03   9.645103E-03   8.604142E-03   8.513537E-03   7.606828E-03   7.516223E-03   7.657752E-03   7.985781E-03   7.965940E-03   7.560534E-03   8.519489E-03   9.436117E-03   1.005448E-02   9.872608E-03   1.025817E-02   1.023701E-02   9.561112E-03   9.389162E-03   8.901748E-03   8.188154E-03   8.592238E-03   8.701360E-03   8.417642E-03   8.974496E-03   9.637829E-03   1.021056E-02   1.048766E-02   1.082759E-02   9.957260E-03   1.172174E-01
   1.172174E-01   8.859422E-03   7.569793E-03   8.079693E-03   7.846897E-03   7.536726E-03   7.588972E-03   7.975199E-03   8.163684E-03   8.258917E-03   8.317117E-03   7.991072E-03   9.471170E-03   9.612698E-03   8.627950E-03   8.173604E-03   7.745050E-03   7.604183E-03   7.558550E-03   8.283388E-03   7.696772E-03   8.038027E-03   8.111437E-03   9.354111E-03   9.805812E-03   9.701979E-03   9.824990E-03   1.049163E-02   9.936758E-03   9.428182E-03   8.954656E-03   8.772786E-03   9.122639E-03   9.076344E-03   8.721200E-03   8.902410E-03   9.459927E-03   1.036994E-02   1.071120E-02   1.094399E-02   1.033687E-02   1.172174E-01
   1.172174E-01   9.101476E-03   7.355516E-03   7.873352E-03   7.501013E-03   7.909064E-03   7.380647E-03   7.747695E-03   8.136569E-03   8.055222E-03   7.938163E-03   8.261563E-03   9.159013E-03   9.347497E-03   9.163642E-03   8.625966E-03   7.969908E-03   7.195469E-03   7.728517E-03   7.757616E-03   7.833010E-03   8.277436E-03   8.512875E-03   8.830984E-03   8.953334E-03   9.375273E-03   9.311784E-03   1.048700E-02   9.370645E-03   9.404373E-03   8.496342E-03   8.869343E-03   9.140495E-03   8.681519E-03   8.534038E-03   8.745670E-03   9.575662E-03   1.055313E-02   1.131567E-02   1.114438E-02   1.098698E-02   1.172174E-01
   1.172174E-01   8.347538E-03   7.512917E-03   7.819782E-03   7.307899E-03   7.794651E-03   7.263589E-03   7.145869E-03   7.389245E-03   7.954036E-03   7.564502E-03   8.278758E-03   9.064440E-03   9.038648E-03   9.183482E-03   8.801885E-03   7.792006E-03   6.947464E-03   8.184185E-03   7.924937E-03   7.790683E-03   8.250982E-03   9.008225E-03   8.672261E-03   8.849502E-03   8.926880E-03   9.738354E-03   1.052007E-02   9.524738E-03   9.129914E-03   8.289340E-03   8.560493E-03   8.844211E-03   9.006241E-03   8.141198E-03   8.939445E-03   9.430827E-03   1.092151E-02   1.167214E-02   1.081503E-02   1.073633E-02   1.172174E-01
   1.172174E-01   7.414376E-03   7.416360E-03   8.104824E-03   7.849543E-03   7.128674E-03   7.364775E-03   6.796015E-03   7.331046E-03   7.702062E-03   7.693465E-03   8.434837E-03   9.203323E-03   9.219857E-03   8.841566E-03   8.955979E-03   8.061836E-03   7.308560E-03   8.078369E-03   7.708014E-03   7.925598E-03   8.295292E-03   8.739718E-03   8.551233E-03   9.301864E-03   9.418261E-03   9.922870E-03   1.022180E-02   9.378580E-03   8.776753E-03   8.596866E-03   8.471872E-03   8.848840E-03   8.848840E-03   8.057207E-03   8.920928E-03   9.658331E-03   1.052536E-02   1.108618E-02   1.114636E-02   1.038978E-02   1.172174E-01
   1.172174E-01   7.188856E-03   7.173645E-03   7.728517E-03   7.753648E-03   7.161079E-03   7.195469E-03   7.113462E-03   7.186872E-03   7.531435E-03   8.326375E-03   8.724507E-03   9.107428E-03   8.923572E-03   9.144464E-03   8.845533E-03   8.235770E-03   7.529451E-03   7.971231E-03   7.663043E-03   7.460671E-03   8.334973E-03   8.223205E-03   8.695408E-03   9.258215E-03   9.739676E-03   9.883851E-03   9.871285E-03   9.439425E-03   8.676890E-03   8.974496E-03   8.986400E-03   8.682842E-03   8.561154E-03   8.142521E-03   8.883230E-03   9.655685E-03   1.043343E-02   1.079254E-02   1.124821E-02   1.088778E-02   1.172174E-01
   1.172174E-01   7.319803E-03   7.217955E-03   7.005001E-03   7.328401E-03   7.154466E-03   7.106849E-03   7.349564E-03   7.866738E-03   7.627330E-03   7.980490E-03   8.957301E-03   9.168933E-03   9.442731E-03   9.426198E-03   9.129914E-03   8.479146E-03   7.988426E-03   8.154425E-03   7.623362E-03   7.534080E-03   8.178233E-03   8.255611E-03   9.037986E-03   9.418922E-03   9.676849E-03   9.430165E-03   9.730418E-03   9.298557E-03   8.970529E-03   9.009548E-03   9.299880E-03   8.322407E-03   8.135907E-03   8.352168E-03   8.807837E-03   9.448684E-03   1.044269E-02   1.066623E-02   1.082363E-02   1.106039E-02   1.172174E-01
   1.172174E-01   7.787376E-03   7.630637E-03   7.015583E-03   6.997065E-03   7.262927E-03   7.273509E-03   7.541355E-03   8.256934E-03   7.879965E-03   8.052577E-03   9.002934E-03   9.466540E-03   9.430165E-03   9.541933E-03   9.136527E-03   8.737072E-03   8.379945E-03   7.850205E-03   8.155086E-03   8.212623E-03   8.449386E-03   7.834993E-03   8.924234E-03   9.502253E-03   9.690075E-03   9.487041E-03   9.082297E-03   9.580953E-03   9.543917E-03   9.257554E-03   9.012193E-03   8.369363E-03   8.191460E-03   8.416318E-03   9.615343E-03   9.500930E-03   1.020791E-02   1.090960E-02   1.090365E-02   1.105510E-02   1.172174E-01
   1.172174E-01   8.416980E-03   7.221924E-03   7.180920E-03   6.874054E-03   7.058571E-03   7.634605E-03   7.574422E-03   8.186170E-03   8.180217E-03   8.636547E-03   8.795272E-03   9.381888E-03   9.250279E-03   9.765469E-03   9.346174E-03   8.892490E-03   8.662340E-03   8.858100E-03   8.641177E-03   8.528086E-03   8.443434E-03   8.594221E-03   9.295250E-03   9.362047E-03   1.003794E-02   1.007233E-02   9.579631E-03   9.506882E-03   9.627247E-03   9.110735E-03   8.682842E-03   8.800562E-03   8.569752E-03   8.776753E-03   9.225809E-03   9.529368E-03   9.748274E-03   1.116091E-02   1.099359E-02   1.088910E-02   1.172174E-01
   1.172174E-01   8.452693E-03   7.225892E-03   7.313851E-03   7.267557E-03   7.319803E-03   7.418344E-03   8.203365E-03   8.038688E-03   8.306535E-03   8.602818E-03   8.690117E-03   9.442070E-03   8.987063E-03   9.660315E-03   9.130575E-03   9.070392E-03   8.432852E-03   9.444054E-03   8.861406E-03   8.989046E-03   8.506262E-03   8.997643E-03   9.549869E-03   9.629893E-03   1.000025E-02   1.065432E-02   1.044335E-02   9.810441E-03   9.492993E-03   9.190097E-03   8.772786E-03   8.647790E-03   9.434134E-03   8.991691E-03   8.733766E-03   9.325012E-03   9.905013E-03   1.098367E-02   1.088249E-02   1.117546E-02   1.172174E-01
   1.172174E-01   8.330343E-03   7.658414E-03   7.502335E-03   7.944116E-03   7.440168E-03   7.555243E-03   8.332327E-03   8.133923E-03   8.305212E-03   8.766834E-03   8.848179E-03   8.840243E-03   9.324349E-03   9.322366E-03   9.165626E-03   9.108089E-03   8.472533E-03   9.154383E-03   8.943413E-03   9.644442E-03   8.339603E-03   9.031372E-03   9.508866E-03   1.025156E-02   1.036730E-02   1.114636E-02   1.107626E-02   1.050089E-02   9.715868E-03   8.938784E-03   9.159013E-03   9.262845E-03   9.906998E-03   9.250940E-03   9.003596E-03   9.358740E-03   1.021452E-02   1.035605E-02   1.041094E-02   1.037722E-02   1.172174E-01
   1.172174E-01   8.244368E-03   8.045964E-03   8.005621E-03   8.024139E-03   7.834332E-03   8.121357E-03   8.715909E-03   8.669615E-03   9.024098E-03   9.211259E-03   9.037325E-03   9.106105E-03   9.590873E-03   9.639151E-03   9.174224E-03   9.022775E-03   9.056504E-03   9.119993E-03   9.042615E-03   8.905055E-03   8.895135E-03   9.224487E-03   9.634522E-03   9.770099E-03   1.029190E-02   1.131699E-02   1.095457E-02   1.089439E-02   9.697351E-03   8.987063E-03   9.457942E-03   1.007564E-02   9.593518E-03   9.063778E-03   9.870623E-03   9.488365E-03   1.029785E-02   1.001480E-02   9.910966E-03   9.701979E-03   1.172174E-01
CONSTANT    1.000000E+00                           #vka2                          
INTERNAL               1  (42E15.6) -1 #hk layer 3                    
   1.172174E-01   7.984458E-03   7.766213E-03   7.893854E-03   7.938163E-03   8.723846E-03   8.273467E-03   8.916298E-03   8.319762E-03   8.368040E-03   8.301905E-03   8.038688E-03   7.948745E-03   8.135245E-03   8.044641E-03   8.098210E-03   8.405075E-03   8.081676E-03   8.592238E-03   8.491051E-03   8.368040E-03   8.751622E-03   8.577688E-03   8.649114E-03   8.579671E-03   9.062456E-03   9.237052E-03   9.427520E-03   8.913653E-03   9.408341E-03   8.530071E-03   9.155707E-03   8.638532E-03   8.865374E-03   9.095524E-03   9.578308E-03   1.019072E-02   1.103261E-02   1.107428E-02   1.020923E-02   1.037259E-02   1.172174E-01
   1.172174E-01   7.661720E-03   7.940809E-03   8.079693E-03   7.753648E-03   8.282727E-03   8.095564E-03   9.096846E-03   8.440128E-03   8.616707E-03   8.806515E-03   8.352168E-03   8.228496E-03   8.182863E-03   7.627991E-03   7.743066E-03   8.575704E-03   8.365395E-03   8.028107E-03   8.232464E-03   8.314471E-03   9.012193E-03   8.758236E-03   8.558509E-03   9.248295E-03   8.905055E-03   9.138511E-03   9.036002E-03   8.982433E-03   9.143140E-03   9.062456E-03   9.180176E-03   8.659695E-03   9.168272E-03   8.754929E-03   9.575001E-03   1.014045E-02   1.069466E-02   1.076807E-02   1.033489E-02   1.042483E-02   1.172174E-01
   1.172174E-01   8.101516E-03   8.112098E-03   8.241722E-03   7.914355E-03   7.605506E-03   8.064481E-03   8.841566E-03   8.624643E-03   8.538668E-03   9.234406E-03   8.451371E-03   8.166990E-03   8.265532E-03   7.610796E-03   7.426280E-03   7.936841E-03   8.015541E-03   7.930228E-03   8.288679E-03   8.186170E-03   8.719216E-03   9.335592E-03   8.608109E-03   8.804530E-03   8.778738E-03   8.780060E-03   8.866035E-03   8.992353E-03   8.971190E-03   9.362708E-03   9.020129E-03   8.538007E-03   8.904394E-03   9.108750E-03   9.276072E-03   1.036002E-02   1.047179E-02   1.068342E-02   1.054255E-02   1.006175E-02   1.172174E-01
   1.172174E-01   8.288679E-03   8.553218E-03   8.016864E-03   7.784070E-03   7.563179E-03   7.439507E-03   8.618030E-03   9.293267E-03   8.996321E-03   8.949365E-03   8.633241E-03   8.730459E-03   8.121357E-03   7.859464E-03   7.480511E-03   7.680899E-03   7.951391E-03   7.961311E-03   8.286033E-03   8.418964E-03   8.689456E-03   9.293267E-03   8.889844E-03   8.657711E-03   8.908362E-03   8.903071E-03   8.579671E-03   8.585623E-03   8.502956E-03   8.850163E-03   8.862067E-03   8.221221E-03   8.570413E-03   8.652420E-03   8.944075E-03   1.015170E-02   1.025685E-02   1.023172E-02   1.008755E-02   1.010937E-02   1.172174E-01
   1.172174E-01   8.344232E-03   8.907701E-03   7.873352E-03   7.800603E-03   7.609474E-03   8.061836E-03   8.489067E-03   9.291283E-03   9.057826E-03   8.838259E-03   8.852147E-03   8.784029E-03   8.319762E-03   7.694788E-03   7.967925E-03   7.448105E-03   7.756293E-03   7.641880E-03   7.725871E-03   8.709296E-03   8.835614E-03   8.997643E-03   8.911007E-03   9.078328E-03   9.369983E-03   9.136527E-03   8.700699E-03   8.231141E-03   8.647790E-03   8.606787E-03   8.620013E-03   8.244368E-03   8.463275E-03   8.466581E-03   8.946058E-03   1.000818E-02   1.043608E-02   1.003728E-02   1.021320E-02   1.005448E-02   1.172174E-01