## BTN for MT3DMS, generated by Flopy.
##
         1        20        42         2         1         1
M   CM  KG  
T T T F T 
 0
         0      0.25                           -1 #delr
         0      0.25                           -1 #delc
         0         0                           -1 #htop
         0      0.25                           -1 #dz layer 1
         0       0.3                           -1 #prsity layer 1
         0         1                           -1 #icbund layer 1
         0         0                           -1 #sconc1 layer 1
     1E+30  1.00E-02
         0         0         0         0         T
        20
0.0000E+001.0500E+002.1000E+003.1500E+004.2000E+005.2500E+006.3000E+007.3500E+00
8.4000E+009.4500E+001.0500E+011.1550E+011.2600E+011.3650E+011.4700E+011.5750E+01
1.6800E+011.7850E+011.8900E+011.9950E+01
         0         1
         T         1
         1         1         1
         0     50000         1         0
        20         1         1
         0     50000         1         0
