# LPF package for  MODFLOW-2005, generated by Flopy.
         0    -1E+30         0  
         0
         0
   1.000000E+00
         0
         0
INTERNAL               1  (42E15.6) -1 #hk layer 1                    
   1.230600E+03   9.262400E+01   9.448500E+01   9.175100E+01   9.050300E+01   9.405200E+01   9.012800E+01   9.161900E+01   9.198500E+01   9.252500E+01   8.847100E+01   8.882800E+01   8.664500E+01   9.005200E+01   9.490500E+01   9.891300E+01   1.043400E+02   1.039000E+02   1.087900E+02   1.105800E+02   1.098100E+02   1.097800E+02   1.116900E+02   1.105400E+02   1.102400E+02   1.050300E+02   1.096400E+02   1.095200E+02   1.094300E+02   1.108400E+02   1.070900E+02   1.089600E+02   1.046400E+02   9.913500E+01   1.002200E+02   9.974000E+01   1.044200E+02   1.101900E+02   1.116400E+02   1.043800E+02   1.025100E+02   1.230600E+03
   1.230600E+03   8.861700E+01   8.787400E+01   8.977100E+01   9.354900E+01   9.084900E+01   8.333400E+01   8.579000E+01   8.547000E+01   8.625800E+01   8.804800E+01   8.788800E+01   9.108700E+01   9.146200E+01   9.274800E+01   8.802900E+01   8.373700E+01   8.460300E+01   8.173100E+01   8.671000E+01   8.841200E+01   8.922900E+01   9.186700E+01   9.080200E+01   8.787900E+01   8.615900E+01   9.141700E+01   9.434300E+01   8.993900E+01   9.180800E+01   8.736600E+01   9.082800E+01   9.093100E+01   9.077600E+01   9.483000E+01   9.233100E+01   9.277600E+01   9.371300E+01   9.956900E+01   1.004300E+02   1.053600E+02   1.230600E+03
   1.230600E+03   1.079400E+02   1.104600E+02   1.090000E+02   1.121600E+02   1.119600E+02   1.100400E+02   1.119200E+02   1.133500E+02   1.145000E+02   1.165400E+02   1.116600E+02   1.097100E+02   1.107600E+02   1.086800E+02   1.068400E+02   1.067700E+02   1.111500E+02   1.100400E+02   1.148700E+02   1.137800E+02   1.140300E+02   1.084600E+02   1.121300E+02   1.116800E+02   1.076900E+02   1.080700E+02   1.029400E+02   1.059800E+02   1.046300E+02   1.056200E+02   1.060200E+02   1.081800E+02   1.121300E+02   1.152200E+02   1.130300E+02   1.132600E+02   1.172100E+02   1.136700E+02   1.135400E+02   1.118400E+02   1.230600E+03
   1.230600E+03   9.270800E+01   9.456600E+01   9.380800E+01   9.089800E+01   9.316600E+01   9.593000E+01   1.003700E+02   9.865200E+01   9.771000E+01   9.736200E+01   9.634600E+01   1.000800E+02   1.036300E+02   1.004600E+02   1.037600E+02   1.058900E+02   1.048600E+02   1.054200E+02   1.048100E+02   9.877500E+01   1.013600E+02   9.705100E+01   9.948300E+01   1.042300E+02   1.056100E+02   1.046000E+02   1.098400E+02   1.088500E+02   1.062700E+02   1.043000E+02   1.075900E+02   1.107400E+02   1.140000E+02   1.144400E+02   1.117700E+02   1.114900E+02   1.115400E+02   1.153300E+02   1.134900E+02   1.069400E+02   1.230600E+03
   1.230600E+03   8.980100E+01   8.509900E+01   8.692100E+01   8.490100E+01   8.140700E+01   8.513900E+01   8.560100E+01   8.578200E+01   8.437400E+01   8.793500E+01   8.301400E+01   8.468900E+01   8.795600E+01   8.945300E+01   8.921000E+01   8.531400E+01   8.706600E+01   9.007600E+01   9.132100E+01   9.725200E+01   9.355100E+01   8.988100E+01   9.248500E+01   9.491600E+01   9.047500E+01   9.372600E+01   9.232600E+01   9.387600E+01   9.511300E+01   9.196200E+01   9.397900E+01   9.671600E+01   9.788400E+01   9.718200E+01   9.675400E+01   9.915700E+01   1.010100E+02   9.918400E+01   9.675400E+01   1.006800E+02   1.230600E+03
   1.230600E+03   1.088400E+02   1.023000E+02   9.992200E+01   1.003600E+02   1.030900E+02   1.012100E+02   9.950800E+01   9.812900E+01   9.456300E+01   9.620100E+01   9.046100E+01   8.772600E+01   8.986900E+01   8.769900E+01   8.496500E+01   8.322500E+01   8.020800E+01   8.267000E+01   8.612500E+01   8.842700E+01   8.746100E+01   8.553900E+01   8.590000E+01   8.538800E+01   9.066600E+01   8.505300E+01   8.187600E+01   8.402300E+01   7.875500E+01   8.011100E+01   7.967500E+01   8.168900E+01   8.197000E+01   8.536800E+01   8.364300E+01   8.251200E+01   8.296100E+01   8.375300E+01   8.370200E+01   9.063900E+01   1.230600E+03
   1.230600E+03   1.070600E+02   1.020900E+02   1.004600E+02   1.009300E+02   9.989500E+01   9.806400E+01   9.335400E+01   9.741500E+01   9.566300E+01   9.884500E+01   1.023400E+02   1.015900E+02   9.836000E+01   9.619300E+01   9.543200E+01   9.981700E+01   9.784800E+01   9.796500E+01   1.003800E+02   9.861600E+01   9.513000E+01   9.914700E+01   1.002700E+02   1.036100E+02   1.076400E+02   1.037100E+02   9.968400E+01   1.001100E+02   9.111600E+01   9.150000E+01   8.824600E+01   9.251000E+01   9.651700E+01   9.741900E+01   9.455800E+01   9.893400E+01   1.009400E+02   1.025400E+02   1.030300E+02   1.046400E+02   1.230600E+03
   1.230600E+03   1.035400E+02   1.032500E+02   1.018900E+02   9.824700E+01   9.522400E+01   9.303100E+01   9.652400E+01   1.030200E+02   1.003400E+02   1.041000E+02   1.050500E+02   1.049000E+02   1.101400E+02   1.066800E+02   1.061200E+02   1.047900E+02   1.079400E+02   1.076800E+02   1.093400E+02   1.141300E+02   1.162200E+02   1.160100E+02   1.155700E+02   1.182700E+02   1.206700E+02   1.212600E+02   1.176900E+02   1.184700E+02   1.152900E+02   1.120400E+02   1.132200E+02   1.077500E+02   1.114000E+02   1.156900E+02   1.138700E+02   1.145100E+02   1.131700E+02   1.116500E+02   1.113600E+02   1.106700E+02   1.230600E+03
   1.230600E+03   9.357600E+01   9.237800E+01   9.006200E+01   8.941000E+01   8.706200E+01   8.586100E+01   8.786100E+01   9.413500E+01   9.785800E+01   9.723200E+01   9.977500E+01   1.040100E+02   1.045800E+02   1.031500E+02   9.972000E+01   9.804100E+01   9.882800E+01   9.610700E+01   9.389400E+01   9.435800E+01   9.753000E+01   9.554300E+01   9.756200E+01   1.031400E+02   1.068600E+02   1.025800E+02   9.633800E+01   1.006800E+02   9.960700E+01   9.835500E+01   9.822000E+01   1.022300E+02   1.018700E+02   1.059700E+02   1.101300E+02   1.110500E+02   1.056600E+02   1.058800E+02   1.074600E+02   1.098100E+02   1.230600E+03
   1.230600E+03   8.950500E+01   8.808800E+01   8.800700E+01   8.740900E+01   8.139600E+01   8.004000E+01   8.062500E+01   7.633500E+01   7.894600E+01   8.138800E+01   8.494200E+01   8.402100E+01   8.429200E+01   8.035300E+01   8.312200E+01   7.928300E+01   8.132300E+01   8.151400E+01   8.139000E+01   8.461800E+01   8.499200E+01   7.949300E+01   8.162200E+01   8.513700E+01   8.449700E+01   8.764300E+01   9.184000E+01   9.450900E+01   9.515200E+01   9.256800E+01   9.270000E+01   9.381900E+01   9.318400E+01   9.413800E+01   9.285800E+01   9.058100E+01   8.781300E+01   8.037800E+01   7.633100E+01   8.121500E+01   1.230600E+03
   1.230600E+03   8.388700E+01   8.070900E+01   7.900500E+01   7.680600E+01   6.867700E+01   7.010300E+01   7.319900E+01   7.486900E+01   8.193500E+01   8.397200E+01   8.352800E+01   8.673200E+01   8.716300E+01   8.204200E+01   7.916700E+01   8.056500E+01   8.020400E+01   8.495900E+01   8.391100E+01   8.562200E+01   8.058700E+01   8.204800E+01   8.234600E+01   8.322500E+01   8.006000E+01   8.849900E+01   9.198900E+01   8.795200E+01   8.654400E+01   8.613500E+01   8.509600E+01   8.777100E+01   9.304100E+01   9.360700E+01   9.182700E+01   9.082600E+01   9.332100E+01   8.968200E+01   8.812100E+01   9.135300E+01   1.230600E+03
   1.230600E+03   1.053700E+02   1.047000E+02   1.034200E+02   9.729100E+01   9.484100E+01   9.534300E+01   9.948400E+01   1.036500E+02   1.070800E+02   1.106700E+02   1.099400E+02   1.100600E+02   1.079800E+02   9.844900E+01   9.756200E+01   9.701600E+01   9.833800E+01   1.017700E+02   1.075400E+02   1.076500E+02   1.021200E+02   1.014100E+02   1.049400E+02   1.110400E+02   1.102800E+02   1.132300E+02   1.162500E+02   1.147200E+02   1.086100E+02   1.084700E+02   1.080000E+02   1.075900E+02   1.054200E+02   1.014800E+02   1.055500E+02   1.081400E+02   1.064100E+02   1.082800E+02   1.066100E+02   1.072600E+02   1.230600E+03
   1.230600E+03   9.422000E+01   9.153400E+01   9.255200E+01   9.414300E+01   9.478800E+01   9.315200E+01   9.600700E+01   1.001600E+02   1.047100E+02   1.072300E+02   1.121000E+02   1.156700E+02   1.151000E+02   1.048500E+02   1.013500E+02   9.878800E+01   9.840300E+01   9.961100E+01   9.794300E+01   9.572000E+01   9.302300E+01   9.354700E+01   9.842100E+01   9.762800E+01   9.946300E+01   1.019800E+02   1.050200E+02   1.022400E+02   9.546000E+01   9.987000E+01   9.849500E+01   9.991600E+01   9.943700E+01   9.823100E+01   9.847600E+01   9.853500E+01   9.688100E+01   9.601600E+01   9.748000E+01   1.003700E+02   1.230600E+03
   1.230600E+03   1.042900E+02   9.953100E+01   9.718700E+01   9.775800E+01   1.009900E+02   9.866500E+01   1.064400E+02   1.033400E+02   1.014800E+02   1.022500E+02   1.046600E+02   1.049000E+02   1.020700E+02   9.376500E+01   9.240600E+01   8.792500E+01   8.582200E+01   8.875200E+01   8.430300E+01   8.455100E+01   8.162600E+01   8.800100E+01   8.935800E+01   8.879700E+01   8.910500E+01   9.054200E+01   9.667200E+01   1.006100E+02   9.717300E+01   1.006100E+02   9.790500E+01   9.675900E+01   9.589300E+01   9.547700E+01   9.585200E+01   9.953400E+01   9.866900E+01   1.024000E+02   1.035800E+02   1.079300E+02   1.230600E+03
   1.230600E+03   9.842200E+01   9.363200E+01   9.272000E+01   9.645500E+01   1.020700E+02   1.025000E+02   9.839500E+01   9.856100E+01   9.814500E+01   9.946100E+01   1.036900E+02   1.079500E+02   1.067700E+02   1.005700E+02   1.068000E+02   1.023800E+02   1.064300E+02   1.034900E+02   9.854000E+01   9.965000E+01   1.008900E+02   1.000200E+02   1.044200E+02   1.009900E+02   1.042600E+02   9.995700E+01   9.965300E+01   9.979800E+01   1.018800E+02   1.009600E+02   9.766800E+01   9.896500E+01   9.546600E+01   9.271400E+01   8.942800E+01   9.256200E+01   9.721100E+01   9.790000E+01   1.003400E+02   9.977600E+01   1.230600E+03
   1.230600E+03   9.696300E+01   9.337300E+01   9.736900E+01   1.057900E+02   1.044200E+02   1.071400E+02   1.049500E+02   1.024100E+02   1.095200E+02   1.147600E+02   1.154600E+02   1.174200E+02   1.203800E+02   1.141900E+02   1.194600E+02   1.138800E+02   1.210700E+02   1.223700E+02   1.209800E+02   1.230600E+02   1.199200E+02   1.196200E+02   1.188000E+02   1.195000E+02   1.169500E+02   1.146300E+02   1.184800E+02   1.162300E+02   1.126700E+02   1.138400E+02   1.184300E+02   1.207600E+02   1.194300E+02   1.148500E+02   1.112700E+02   1.111500E+02   1.111600E+02   1.094500E+02   1.135700E+02   1.092900E+02   1.230600E+03
   1.230600E+03   9.837700E+01   9.730100E+01   1.015300E+02   1.101300E+02   1.111000E+02   1.147500E+02   1.197700E+02   1.207700E+02   1.181600E+02   1.204400E+02   1.185700E+02   1.202200E+02   1.177600E+02   1.180000E+02   1.224700E+02   1.200400E+02   1.137200E+02   1.171200E+02   1.168700E+02   1.120200E+02   1.144300E+02   1.154900E+02   1.170200E+02   1.164400E+02   1.139100E+02   1.110300E+02   1.071900E+02   1.089200E+02   1.035800E+02   1.063600E+02   1.035400E+02   1.076900E+02   1.052500E+02   1.032900E+02   1.057900E+02   1.051900E+02   1.048000E+02   1.069800E+02   1.059800E+02   1.070500E+02   1.230600E+03
   1.230600E+03   1.007600E+02   9.425800E+01   9.469500E+01   9.433000E+01   9.292500E+01   9.643900E+01   1.004300E+02   1.013700E+02   1.005400E+02   9.871600E+01   9.866700E+01   9.873900E+01   1.031300E+02   1.000300E+02   1.033500E+02   1.074100E+02   1.098200E+02   1.124400E+02   1.120400E+02   1.131600E+02   1.065800E+02   1.088400E+02   1.103800E+02   1.078100E+02   1.122200E+02   1.060000E+02   1.063300E+02   1.087100E+02   1.096300E+02   1.093600E+02   1.033000E+02   1.069600E+02   1.074500E+02   1.041100E+02   1.026400E+02   9.902300E+01   9.919500E+01   9.855200E+01   9.803700E+01   1.002000E+02   1.230600E+03
   1.230600E+03   8.442900E+01   8.603300E+01   8.574900E+01   8.690800E+01   8.122400E+01   8.489300E+01   8.814200E+01   9.158800E+01   9.728400E+01   1.006100E+02   1.104900E+02   1.088300E+02   1.143600E+02   1.123200E+02   1.152700E+02   1.176200E+02   1.124500E+02   1.052700E+02   1.018400E+02   1.057800E+02   1.027800E+02   1.058000E+02   1.089900E+02   1.078800E+02   1.110300E+02   1.105300E+02   1.097300E+02   1.121600E+02   1.123000E+02   1.145500E+02   1.068900E+02   1.071900E+02   1.045400E+02   1.025900E+02   1.050000E+02   9.995900E+01   1.020300E+02   9.957500E+01   1.027000E+02   1.031900E+02   1.230600E+03
   1.230600E+03   9.513800E+01   9.777800E+01   1.032600E+02   1.006600E+02   9.850600E+01   1.044900E+02   1.103700E+02   1.114900E+02   1.111500E+02   1.141200E+02   1.153600E+02   1.149400E+02   1.162100E+02   1.168500E+02   1.140800E+02   1.104400E+02   1.095400E+02   1.072300E+02   1.097300E+02   1.061600E+02   1.020100E+02   1.009300E+02   1.024100E+02   1.081100E+02   1.074100E+02   1.076800E+02   1.014400E+02   9.999900E+01   9.817900E+01   9.319300E+01   9.636900E+01   9.294100E+01   9.406400E+01   9.502200E+01   9.542300E+01   9.765900E+01   9.776400E+01   9.584900E+01   1.042500E+02   1.079400E+02   1.230600E+03
CONSTANT    1.000000E+00                           #vka1                          
