# Name file for MODFLOW-2005, generated by Flopy version 3.3.0.
#xll:0.0; yll:0.0; rotation:0.0; units:centimeters; lenuni:3; start_datetime:1-1-1970
LIST               2  td4_mf.list
DIS               11  td4_mf.dis
BAS6              13  td4_mf.bas
LPF               15  td4_mf.lpf
WEL               20  td4_mf.wel
PCG               27  td4_mf.pcg
LMT6              30  td4_mf.lmt6
OC                14  td4_mf.oc
DATA(BINARY)      51  td4_mf.hds REPLACE
