# LPF package for  MODFLOW-2005, generated by Flopy.
         0    -1E+30         0  
         0         0         0         0         0         0         0         0         0         0         0         0         0         0         0         0         0         0         0         0
         0         0         0         0         0         0         0         0         0         0         0         0         0         0         0         0         0         0         0         0
   1.000000E+00   1.000000E+00   1.000000E+00   1.000000E+00   1.000000E+00   1.000000E+00   1.000000E+00   1.000000E+00   1.000000E+00   1.000000E+00   1.000000E+00   1.000000E+00   1.000000E+00   1.000000E+00   1.000000E+00   1.000000E+00   1.000000E+00   1.000000E+00   1.000000E+00   1.000000E+00
         0         0         0         0         0         0         0         0         0         0         0         0         0         0         0         0         0         0         0         0
         0         0         0         0         0         0         0         0         0         0         0         0         0         0         0         0         0         0         0         0
INTERNAL               1  (42E15.6) -1 #hk layer 1                    
   0.000000E+00   0.000000E+00   0.000000E+00   0.000000E+00   0.000000E+00   0.000000E+00   0.000000E+00   0.000000E+00   0.000000E+00   0.000000E+00   0.000000E+00   0.000000E+00   0.000000E+00   0.000000E+00   0.000000E+00   0.000000E+00   0.000000E+00   0.000000E+00   0.000000E+00   0.000000E+00   0.000000E+00   0.000000E+00   0.000000E+00   0.000000E+00   0.000000E+00   0.000000E+00   0.000000E+00   0.000000E+00   0.000000E+00   0.000000E+00   0.000000E+00   0.000000E+00   0.000000E+00   0.000000E+00   0.000000E+00   0.000000E+00   0.000000E+00   0.000000E+00   0.000000E+00   0.000000E+00   0.000000E+00   0.000000E+00
   0.000000E+00   0.000000E+00   0.000000E+00   0.000000E+00   0.000000E+00   0.000000E+00   0.000000E+00   0.000000E+00   0.000000E+00   0.000000E+00   0.000000E+00   0.000000E+00   0.000000E+00   0.000000E+00   0.000000E+00   0.000000E+00   0.000000E+00   0.000000E+00   0.000000E+00   0.000000E+00   0.000000E+00   0.000000E+00   0.000000E+00   0.000000E+00   0.000000E+00   0.000000E+00   0.000000E+00   0.000000E+00   0.000000E+00   0.000000E+00   0.000000E+00   0.000000E+00   0.000000E+00   0.000000E+00   0.000000E+00   0.000000E+00   0.000000E+00   0.000000E+00   0.000000E+00   0.000000E+00   0.000000E+00   0.000000E+00
   0.000000E+00   0.000000E+00   0.000000E+00   0.000000E+00   0.000000E+00   0.000000E+00   0.000000E+00   0.000000E+00   0.000000E+00   0.000000E+00   0.000000E+00   0.000000E+00   0.000000E+00   0.000000E+00   0.000000E+00   0.000000E+00   0.000000E+00   0.000000E+00   0.000000E+00   0.000000E+00   0.000000E+00   0.000000E+00   0.000000E+00   0.000000E+00   0.000000E+00   0.000000E+00   0.000000E+00   0.000000E+00   0.000000E+00   0.000000E+00   0.000000E+00   0.000000E+00   0.000000E+00   0.000000E+00   0.000000E+00   0.000000E+00   0.000000E+00   0.000000E+00   0.000000E+00   0.000000E+00   0.000000E+00   0.000000E+00
   0.000000E+00   0.000000E+00   0.000000E+00   0.000000E+00   0.000000E+00   0.000000E+00   0.000000E+00   0.000000E+00   0.000000E+00   0.000000E+00   0.000000E+00   0.000000E+00   0.000000E+00   0.000000E+00   0.000000E+00   0.000000E+00   0.000000E+00   0.000000E+00   0.000000E+00   0.000000E+00   0.000000E+00   0.000000E+00   0.000000E+00   0.000000E+00   0.000000E+00   0.000000E+00   0.000000E+00   0.000000E+00   0.000000E+00   0.000000E+00   0.000000E+00   0.000000E+00   0.000000E+00   0.000000E+00   0.000000E+00   0.000000E+00   0.000000E+00   0.000000E+00   0.000000E+00   0.000000E+00   0.000000E+00   0.000000E+00
   0.000000E+00   0.000000E+00   0.000000E+00   0.000000E+00   0.000000E+00   0.000000E+00   0.000000E+00   0.000000E+00   0.000000E+00   0.000000E+00   0.000000E+00   0.000000E+00   0.000000E+00   0.000000E+00   0.000000E+00   0.000000E+00   0.000000E+00   0.000000E+00   0.000000E+00   0.000000E+00   0.000000E+00   0.000000E+00   0.000000E+00   0.000000E+00   0.000000E+00   0.000000E+00   0.000000E+00   0.000000E+00   0.000000E+00   0.000000E+00   0.000000E+00   0.000000E+00   0.000000E+00   0.000000E+00   0.000000E+00   0.000000E+00   0.000000E+00   0.000000E+00   0.000000E+00   0.000000E+00   0.000000E+00   0.000000E+00
   0.000000E+00   0.000000E+00   0.000000E+00   0.000000E+00   0.000000E+00   0.000000E+00   0.000000E+00   0.000000E+00   0.000000E+00   0.000000E+00   0.000000E+00   0.000000E+00   0.000000E+00   0.000000E+00   0.000000E+00   0.000000E+00   0.000000E+00   0.000000E+00   0.000000E+00   0.000000E+00   0.000000E+00   0.000000E+00   0.000000E+00   0.000000E+00   0.000000E+00   0.000000E+00   0.000000E+00   0.000000E+00   0.000000E+00   0.000000E+00   0.000000E+00   0.000000E+00   0.000000E+00   0.000000E+00   0.000000E+00   0.000000E+00   0.000000E+00   0.000000E+00   0.000000E+00   0.000000E+00   0.000000E+00   0.000000E+00
   0.000000E+00   0.000000E+00   0.000000E+00   0.000000E+00   0.000000E+00   0.000000E+00   0.000000E+00   0.000000E+00   0.000000E+00   0.000000E+00   0.000000E+00   0.000000E+00   0.000000E+00   0.000000E+00   0.000000E+00   0.000000E+00   0.000000E+00   0.000000E+00   0.000000E+00   0.000000E+00   0.000000E+00   0.000000E+00   0.000000E+00   0.000000E+00   0.000000E+00   0.000000E+00   0.000000E+00   0.000000E+00   0.000000E+00   0.000000E+00   0.000000E+00   0.000000E+00   0.000000E+00   0.000000E+00   0.000000E+00   0.000000E+00   0.000000E+00   0.000000E+00   0.000000E+00   0.000000E+00   0.000000E+00   0.000000E+00
   1.363039E+01   8.901748E-01   9.265490E-01   9.166288E-01   9.027405E-01   1.001281E+00   1.056835E+00   1.193072E+00   1.182491E+00   1.083950E+00   1.074691E+00   1.058819E+00   1.072707E+00   1.036333E+00   1.002604E+00   9.642459E-01   9.503576E-01   1.061464E+00   1.023767E+00   1.047576E+00   1.074030E+00   1.007895E+00   9.847476E-01   1.050221E+00   1.057496E+00   1.036333E+00   1.050221E+00   9.569710E-01   9.735047E-01   9.582937E-01   9.186128E-01   8.994337E-01   9.272103E-01   1.007895E+00   1.024428E+00   1.065432E+00   1.048237E+00   1.020460E+00   1.035010E+00   9.880544E-01   9.893771E-01   1.363039E+01
   1.363039E+01   9.007564E-01   1.001943E+00   1.055512E+00   1.165296E+00   1.142148E+00   1.141487E+00   1.186459E+00   1.066755E+00   1.068078E+00   1.013847E+00   1.085934E+00   1.013186E+00   9.596164E-01   1.001281E+00   1.050882E+00   1.043608E+00   1.064771E+00   1.037655E+00   1.001943E+00   9.887157E-01   9.437441E-01   1.127599E+00   1.119001E+00   1.031703E+00   9.410986E-01   9.325011E-01   1.072046E+00   9.906998E-01   1.054189E+00   1.077998E+00   1.019799E+00   1.019799E+00   9.847476E-01   1.047576E+00   9.675526E-01   1.073368E+00   1.042946E+00   9.668912E-01   1.001943E+00   9.781342E-01   1.363039E+01
   1.363039E+01   1.040962E+00   9.986359E-01   1.070723E+00   1.079982E+00   1.214897E+00   1.127599E+00   1.122969E+00   1.080643E+00   1.072046E+00   1.086595E+00   1.056835E+00   1.113049E+00   1.081966E+00   1.125615E+00   1.198363E+00   1.115033E+00   1.197040E+00   1.171909E+00   1.206961E+00   1.152730E+00   1.109743E+00   1.106436E+00   1.136858E+00   1.054189E+00   1.024428E+00   1.060803E+00   1.106436E+00   1.074030E+00   1.109743E+00   1.105113E+00   1.026413E+00   1.064771E+00   9.748274E-01   9.761501E-01   9.582937E-01   1.010540E+00   1.064771E+00   1.044269E+00   1.011202E+00   9.437441E-01   1.363039E+01
   1.363039E+01   1.044930E+00   1.085934E+00   1.134874E+00   1.169264E+00   1.115033E+00   1.117679E+00   1.120324E+00   1.195718E+00   1.156698E+00   1.125615E+00   1.031042E+00   1.107758E+00   1.137519E+00   1.192411E+00   1.204977E+00   1.202993E+00   1.167941E+00   1.152730E+00   1.195056E+00   1.192411E+00   1.102468E+00   1.166618E+00   1.142810E+00   1.159344E+00   1.218865E+00   1.212913E+00   1.151407E+00   1.109743E+00   1.163973E+00   1.175216E+00   1.222172E+00   1.059480E+00   1.109743E+00   1.099822E+00   1.038978E+00   1.039640E+00   9.953292E-01   9.563097E-01   9.146447E-01   8.147811E-01   1.363039E+01
   1.363039E+01   1.085273E+00   1.136858E+00   1.105774E+00   1.212913E+00   1.146117E+00   1.137519E+00   1.158682E+00   1.021122E+00   1.152069E+00   1.143471E+00   1.182491E+00   1.161989E+00   1.145455E+00   1.112388E+00   1.115033E+00   1.145455E+00   1.173232E+00   1.264498E+00   1.340553E+00   1.195056E+00   1.175877E+00   1.068739E+00   1.101145E+00   1.208283E+00   1.203654E+00   1.206961E+00   1.198363E+00   1.179845E+00   1.099822E+00   1.122308E+00   1.087918E+00   1.036994E+00   1.077998E+00   1.073368E+00   1.146778E+00   1.161328E+00   1.111727E+00   1.089241E+00   1.123631E+00   1.050221E+00   1.363039E+01
   1.363039E+01   1.127599E+00   1.097177E+00   1.091225E+00   9.821023E-01   9.675526E-01   1.042946E+00   1.066093E+00   1.009218E+00   1.012524E+00   1.018476E+00   1.118340E+00   1.198363E+00   1.144133E+00   1.168602E+00   1.132228E+00   1.177861E+00   1.195056E+00   1.161328E+00   1.173232E+00   1.200347E+00   1.155375E+00   1.067416E+00   1.121647E+00   1.184475E+00   1.205638E+00   1.190427E+00   1.111727E+00   1.086595E+00   1.072707E+00   1.114372E+00   1.161989E+00   1.072046E+00   1.120985E+00   1.107097E+00   1.110404E+00   1.138180E+00   1.159344E+00   1.160005E+00   1.122969E+00   1.097177E+00   1.363039E+01
   0.000000E+00   0.000000E+00   0.000000E+00   0.000000E+00   0.000000E+00   0.000000E+00   0.000000E+00   0.000000E+00   0.000000E+00   0.000000E+00   0.000000E+00   0.000000E+00   0.000000E+00   0.000000E+00   0.000000E+00   0.000000E+00   0.000000E+00   0.000000E+00   0.000000E+00   0.000000E+00   0.000000E+00   0.000000E+00   0.000000E+00   0.000000E+00   0.000000E+00   0.000000E+00   0.000000E+00   0.000000E+00   0.000000E+00   0.000000E+00   0.000000E+00   0.000000E+00   0.000000E+00   0.000000E+00   0.000000E+00   0.000000E+00   0.000000E+00   0.000000E+00   0.000000E+00   0.000000E+00   0.000000E+00   0.000000E+00
   0.000000E+00   0.000000E+00   0.000000E+00   0.000000E+00   0.000000E+00   0.000000E+00   0.000000E+00   0.000000E+00   0.000000E+00   0.000000E+00   0.000000E+00   0.000000E+00   0.000000E+00   0.000000E+00   0.000000E+00   0.000000E+00   0.000000E+00   0.000000E+00   0.000000E+00   0.000000E+00   0.000000E+00   0.000000E+00   0.000000E+00   0.000000E+00   0.000000E+00   0.000000E+00   0.000000E+00   0.000000E+00   0.000000E+00   0.000000E+00   0.000000E+00   0.000000E+00   0.000000E+00   0.000000E+00   0.000000E+00   0.000000E+00   0.000000E+00   0.000000E+00   0.000000E+00   0.000000E+00   0.000000E+00   0.000000E+00
   0.000000E+00   0.000000E+00   0.000000E+00   0.000000E+00   0.000000E+00   0.000000E+00   0.000000E+00   0.000000E+00   0.000000E+00   0.000000E+00   0.000000E+00   0.000000E+00   0.000000E+00   0.000000E+00   0.000000E+00   0.000000E+00   0.000000E+00   0.000000E+00   0.000000E+00   0.000000E+00   0.000000E+00   0.000000E+00   0.000000E+00   0.000000E+00   0.000000E+00   0.000000E+00   0.000000E+00   0.000000E+00   0.000000E+00   0.000000E+00   0.000000E+00   0.000000E+00   0.000000E+00   0.000000E+00   0.000000E+00   0.000000E+00   0.000000E+00   0.000000E+00   0.000000E+00   0.000000E+00   0.000000E+00   0.000000E+00
   0.000000E+00   0.000000E+00   0.000000E+00   0.000000E+00   0.000000E+00   0.000000E+00   0.000000E+00   0.000000E+00   0.000000E+00   0.000000E+00   0.000000E+00   0.000000E+00   0.000000E+00   0.000000E+00   0.000000E+00   0.000000E+00   0.000000E+00   0.000000E+00   0.000000E+00   0.000000E+00   0.000000E+00   0.000000E+00   0.000000E+00   0.000000E+00   0.000000E+00   0.000000E+00   0.000000E+00   0.000000E+00   0.000000E+00   0.000000E+00   0.000000E+00   0.000000E+00   0.000000E+00   0.000000E+00   0.000000E+00   0.000000E+00   0.000000E+00   0.000000E+00   0.000000E+00   0.000000E+00   0.000000E+00   0.000000E+00
   0.000000E+00   0.000000E+00   0.000000E+00   0.000000E+00   0.000000E+00   0.000000E+00   0.000000E+00   0.000000E+00   0.000000E+00   0.000000E+00   0.000000E+00   0.000000E+00   0.000000E+00   0.000000E+00   0.000000E+00   0.000000E+00   0.000000E+00   0.000000E+00   0.000000E+00   0.000000E+00   0.000000E+00   0.000000E+00   0.000000E+00   0.000000E+00   0.000000E+00   0.000000E+00   0.000000E+00   0.000000E+00   0.000000E+00   0.000000E+00   0.000000E+00   0.000000E+00   0.000000E+00   0.000000E+00   0.000000E+00   0.000000E+00   0.000000E+00   0.000000E+00   0.000000E+00   0.000000E+00   0.000000E+00   0.000000E+00
   0.000000E+00   0.000000E+00   0.000000E+00   0.000000E+00   0.000000E+00   0.000000E+00   0.000000E+00   0.000000E+00   0.000000E+00   0.000000E+00   0.000000E+00   0.000000E+00   0.000000E+00   0.000000E+00   0.000000E+00   0.000000E+00   0.000000E+00   0.000000E+00   0.000000E+00   0.000000E+00   0.000000E+00   0.000000E+00   0.000000E+00   0.000000E+00   0.000000E+00   0.000000E+00   0.000000E+00   0.000000E+00   0.000000E+00   0.000000E+00   0.000000E+00   0.000000E+00   0.000000E+00   0.000000E+00   0.000000E+00   0.000000E+00   0.000000E+00   0.000000E+00   0.000000E+00   0.000000E+00   0.000000E+00   0.000000E+00
   0.000000E+00   0.000000E+00   0.000000E+00   0.000000E+00   0.000000E+00   0.000000E+00   0.000000E+00   0.000000E+00   0.000000E+00   0.000000E+00   0.000000E+00   0.000000E+00   0.000000E+00   0.000000E+00   0.000000E+00   0.000000E+00   0.000000E+00   0.000000E+00   0.000000E+00   0.000000E+00   0.000000E+00   0.000000E+00   0.000000E+00   0.000000E+00   0.000000E+00   0.000000E+00   0.000000E+00   0.000000E+00   0.000000E+00   0.000000E+00   0.000000E+00   0.000000E+00   0.000000E+00   0.000000E+00   0.000000E+00   0.000000E+00   0.000000E+00   0.000000E+00   0.000000E+00   0.000000E+00   0.000000E+00   0.000000E+00
CONSTANT    1.000000E+00                           #vka1                          
INTERNAL               1  (42E15.6) -1 #hk layer 2                    
   0.000000E+00   0.000000E+00   0.000000E+00   0.000000E+00   0.000000E+00   0.000000E+00   0.000000E+00   0.000000E+00   0.000000E+00   0.000000E+00   0.000000E+00   0.000000E+00   0.000000E+00   0.000000E+00   0.000000E+00   0.000000E+00   0.000000E+00   0.000000E+00   0.000000E+00   0.000000E+00   0.000000E+00   0.000000E+00   0.000000E+00   0.000000E+00   0.000000E+00   0.000000E+00   0.000000E+00   0.000000E+00   0.000000E+00   0.000000E+00   0.000000E+00   0.000000E+00   0.000000E+00   0.000000E+00   0.000000E+00   0.000000E+00   0.000000E+00   0.000000E+00   0.000000E+00   0.000000E+00   0.000000E+00   0.000000E+00
   0.000000E+00   0.000000E+00   0.000000E+00   0.000000E+00   0.000000E+00   0.000000E+00   0.000000E+00   0.000000E+00   0.000000E+00   0.000000E+00   0.000000E+00   0.000000E+00   0.000000E+00   0.000000E+00   0.000000E+00   0.000000E+00   0.000000E+00   0.000000E+00   0.000000E+00   0.000000E+00   0.000000E+00   0.000000E+00   0.000000E+00   0.000000E+00   0.000000E+00   0.000000E+00   0.000000E+00   0.000000E+00   0.000000E+00   0.000000E+00   0.000000E+00   0.000000E+00   0.000000E+00   0.000000E+00   0.000000E+00   0.000000E+00   0.000000E+00   0.000000E+00   0.000000E+00   0.000000E+00   0.000000E+00   0.000000E+00
   0.000000E+00   0.000000E+00   0.000000E+00   0.000000E+00   0.000000E+00   0.000000E+00   0.000000E+00   0.000000E+00   0.000000E+00   0.000000E+00   0.000000E+00   0.000000E+00   0.000000E+00   0.000000E+00   0.000000E+00   0.000000E+00   0.000000E+00   0.000000E+00   0.000000E+00   0.000000E+00   0.000000E+00   0.000000E+00   0.000000E+00   0.000000E+00   0.000000E+00   0.000000E+00   0.000000E+00   0.000000E+00   0.000000E+00   0.000000E+00   0.000000E+00   0.000000E+00   0.000000E+00   0.000000E+00   0.000000E+00   0.000000E+00   0.000000E+00   0.000000E+00   0.000000E+00   0.000000E+00   0.000000E+00   0.000000E+00
   0.000000E+00   0.000000E+00   0.000000E+00   0.000000E+00   0.000000E+00   0.000000E+00   0.000000E+00   0.000000E+00   0.000000E+00   0.000000E+00   0.000000E+00   0.000000E+00   0.000000E+00   0.000000E+00   0.000000E+00   0.000000E+00   0.000000E+00   0.000000E+00   0.000000E+00   0.000000E+00   0.000000E+00   0.000000E+00   0.000000E+00   0.000000E+00   0.000000E+00   0.000000E+00   0.000000E+00   0.000000E+00   0.000000E+00   0.000000E+00   0.000000E+00   0.000000E+00   0.000000E+00   0.000000E+00   0.000000E+00   0.000000E+00   0.000000E+00   0.000000E+00   0.000000E+00   0.000000E+00   0.000000E+00   0.000000E+00
   0.000000E+00   0.000000E+00   0.000000E+00   0.000000E+00   0.000000E+00   0.000000E+00   0.000000E+00   0.000000E+00   0.000000E+00   0.000000E+00   0.000000E+00   0.000000E+00   0.000000E+00   0.000000E+00   0.000000E+00   0.000000E+00   0.000000E+00   0.000000E+00   0.000000E+00   0.000000E+00   0.000000E+00   0.000000E+00   0.000000E+00   0.000000E+00   0.000000E+00   0.000000E+00   0.000000E+00   0.000000E+00   0.000000E+00   0.000000E+00   0.000000E+00   0.000000E+00   0.000000E+00   0.000000E+00   0.000000E+00   0.000000E+00   0.000000E+00   0.000000E+00   0.000000E+00   0.000000E+00   0.000000E+00   0.000000E+00
   1.363039E+01   8.914976E-01   8.418964E-01   9.417600E-01   8.908362E-01   7.618732E-01   8.227173E-01   8.412350E-01   8.928202E-01   9.748274E-01   1.040962E+00   1.038978E+00   9.801182E-01   9.735047E-01   9.556483E-01   9.735047E-01   8.736411E-01   9.086926E-01   9.563097E-01   9.768115E-01   1.019799E+00   1.001281E+00   1.004588E+00   9.682139E-01   9.272103E-01   1.011202E+00   9.715207E-01   9.338238E-01   9.219195E-01   9.119993E-01   8.498326E-01   7.850205E-01   8.385897E-01   8.346215E-01   8.425577E-01   8.220559E-01   8.564461E-01   8.617368E-01   8.233786E-01   8.564461E-01   8.908362E-01   1.363039E+01
   1.363039E+01   7.572438E-01   8.359443E-01   9.351465E-01   9.900385E-01   1.003927E+00   1.003265E+00   9.563097E-01   1.042946E+00   1.028397E+00   1.085273E+00   1.075352E+00   1.005911E+00   9.675526E-01   9.377919E-01   9.007564E-01   9.298557E-01   9.787955E-01   1.007234E+00   9.933451E-01   1.022444E+00   1.030381E+00   1.048898E+00   1.044269E+00   9.602777E-01   8.961270E-01   8.835614E-01   9.086926E-01   1.015831E+00   1.023767E+00   9.854090E-01   8.928202E-01   9.556483E-01   8.914976E-01   9.305171E-01   9.166288E-01   9.060472E-01   9.166288E-01   8.683503E-01   8.981110E-01   9.371306E-01   1.363039E+01
   1.363039E+01   8.941429E-01   9.093539E-01   9.205968E-01   9.199355E-01   9.854090E-01   1.034349E+00   1.184475E+00   1.205638E+00   1.103129E+00   1.071384E+00   1.073368E+00   1.064771E+00   1.034349E+00   1.008556E+00   9.900385E-01   9.477121E-01   1.037655E+00   1.013186E+00   1.066093E+00   1.069400E+00   1.003927E+00   9.953292E-01   1.043608E+00   1.064109E+00   1.036333E+00   1.034349E+00   9.589550E-01   9.410986E-01   9.715207E-01   9.159674E-01   9.133220E-01   9.119993E-01   1.003265E+00   1.028397E+00   9.596164E-01   1.008556E+00   9.940065E-01   1.036333E+00   9.966519E-01   9.854090E-01   1.363039E+01
   1.363039E+01   8.888521E-01   1.022444E+00   1.037655E+00   1.148101E+00   1.091886E+00   1.154714E+00   1.191750E+00   1.121647E+00   1.105774E+00   1.076675E+00   1.125615E+00   1.052205E+00   9.444054E-01   9.940065E-01   1.053528E+00   1.044269E+00   1.017815E+00   1.015170E+00   1.007234E+00   9.662299E-01   9.854090E-01   1.193072E+00   1.153391E+00   1.072046E+00   9.655685E-01   9.166288E-01   1.070723E+00   1.013847E+00   1.048898E+00   1.055512E+00   1.059480E+00   1.011863E+00   1.048237E+00   1.036994E+00   9.867317E-01   1.099822E+00   1.048237E+00   9.569710E-01   1.014508E+00   1.027735E+00   1.363039E+01
   1.363039E+01   1.049560E+00   1.036333E+00   1.049560E+00   1.086595E+00   1.195056E+00   1.113049E+00   1.116356E+00   1.084611E+00   1.110404E+00   1.077998E+00   1.010540E+00   1.073368E+00   1.095193E+00   1.130906E+00   1.185798E+00   1.138180E+00   1.129583E+00   1.185136E+00   1.156698E+00   1.109743E+00   1.091886E+00   1.096516E+00   1.106436E+00   1.048898E+00   1.010540E+00   1.055512E+00   1.095854E+00   1.098500E+00   1.067416E+00   1.114372E+00   1.014508E+00   1.040301E+00   9.655685E-01   9.609391E-01   9.741661E-01   1.010540E+00   1.081305E+00   1.069400E+00   1.030381E+00   9.754888E-01   1.363039E+01
   1.363039E+01   1.062125E+00   1.035010E+00   1.101145E+00   1.164634E+00   1.116356E+00   1.158021E+00   1.166618E+00   1.199686E+00   1.179184E+00   1.077336E+00   1.044930E+00   1.093209E+00   1.182491E+00   1.158021E+00   1.212251E+00   1.244658E+00   1.185136E+00   1.196379E+00   1.223494E+00   1.259869E+00   1.124292E+00   1.161989E+00   1.109743E+00   1.166618E+00   1.208283E+00   1.220188E+00   1.173232E+00   1.128922E+00   1.182491E+00   1.197040E+00   1.254578E+00   1.085273E+00   1.109081E+00   1.136196E+00   1.021783E+00   1.008556E+00   9.721820E-01   9.827636E-01   9.344852E-01   7.975861E-01   1.363039E+01
   1.363039E+01   1.092547E+00   1.093209E+00   1.102468E+00   1.197702E+00   1.132890E+00   1.092547E+00   1.145455E+00   1.017154E+00   1.134874E+00   1.148762E+00   1.190427E+00   1.181829E+00   1.127599E+00   1.100484E+00   1.089241E+00   1.185798E+00   1.144794E+00   1.288968E+00   1.359071E+00   1.206299E+00   1.152069E+00   1.072046E+00   1.119001E+00   1.224156E+00   1.220188E+00   1.154714E+00   1.214897E+00   1.165296E+00   1.153391E+00   1.108420E+00   1.083950E+00   1.040962E+00   1.040962E+00   1.110404E+00   1.130906E+00   1.236060E+00   1.132890E+00   1.094531E+00   1.097177E+00   1.044269E+00   1.363039E+01
   1.363039E+01   1.176539E+00   1.087918E+00   1.111727E+00   1.019138E+00   1.009879E+00   1.047576E+00   1.094531E+00   1.009218E+00   1.027735E+00   1.050882E+00   1.103790E+00   1.192411E+00   1.141487E+00   1.158682E+00   1.142148E+00   1.181829E+00   1.210929E+00   1.187782E+00   1.199686E+00   1.173893E+00   1.150746E+00   1.060803E+00   1.116356E+00   1.193072E+00   1.163312E+00   1.196379E+00   1.090563E+00   1.117017E+00   1.093209E+00   1.140826E+00   1.155375E+00   1.077336E+00   1.105774E+00   1.124292E+00   1.125615E+00   1.162650E+00   1.163973E+00   1.171909E+00   1.122969E+00   1.126938E+00   1.363039E+01
   1.363039E+01   1.178523E+00   1.158021E+00   1.058819E+00   1.066093E+00   9.761501E-01   9.384533E-01   9.470508E-01   9.913611E-01   1.005249E+00   9.563097E-01   1.071384E+00   1.001281E+00   1.089241E+00   1.123631E+00   1.115033E+00   1.165957E+00   1.126276E+00   1.148101E+00   1.076675E+00   9.913611E-01   1.045592E+00   9.635845E-01   1.029719E+00   9.854090E-01   1.032365E+00   1.055512E+00   1.075352E+00   1.058819E+00   9.781342E-01   1.106436E+00   1.132890E+00   1.150746E+00   1.255901E+00   1.233415E+00   1.243996E+00   1.277064E+00   1.279048E+00   1.275080E+00   1.300211E+00   1.286984E+00   1.363039E+01
   1.363039E+01   1.029058E+00   9.794568E-01   9.821023E-01   9.953292E-01   9.701980E-01   1.015170E+00   9.880544E-01   9.827636E-01   9.384533E-01   1.013847E+00   9.291944E-01   9.801182E-01   1.022444E+00   9.933451E-01   1.066093E+00   1.018476E+00   9.708593E-01   9.900385E-01   9.609391E-01   9.635845E-01   9.516802E-01   9.635845E-01   1.040962E+00   1.031042E+00   1.029719E+00   1.047576E+00   1.106436E+00   1.093209E+00   1.100484E+00   1.098500E+00   1.170586E+00   1.150085E+00   1.187120E+00   1.124954E+00   1.103129E+00   1.151407E+00   1.182491E+00   1.236721E+00   1.271111E+00   1.228124E+00   1.363039E+01
   0.000000E+00   0.000000E+00   0.000000E+00   0.000000E+00   0.000000E+00   0.000000E+00   0.000000E+00   0.000000E+00   0.000000E+00   0.000000E+00   0.000000E+00   0.000000E+00   0.000000E+00   0.000000E+00   0.000000E+00   0.000000E+00   0.000000E+00   0.000000E+00   0.000000E+00   0.000000E+00   0.000000E+00   0.000000E+00   0.000000E+00   0.000000E+00   0.000000E+00   0.000000E+00   0.000000E+00   0.000000E+00   0.000000E+00   0.000000E+00   0.000000E+00   0.000000E+00   0.000000E+00   0.000000E+00   0.000000E+00   0.000000E+00   0.000000E+00   0.000000E+00   0.000000E+00   0.000000E+00   0.000000E+00   0.000000E+00
   0.000000E+00   0.000000E+00   0.000000E+00   0.000000E+00   0.000000E+00   0.000000E+00   0.000000E+00   0.000000E+00   0.000000E+00   0.000000E+00   0.000000E+00   0.000000E+00   0.000000E+00   0.000000E+00   0.000000E+00   0.000000E+00   0.000000E+00   0.000000E+00   0.000000E+00   0.000000E+00   0.000000E+00   0.000000E+00   0.000000E+00   0.000000E+00   0.000000E+00   0.000000E+00   0.000000E+00   0.000000E+00   0.000000E+00   0.000000E+00   0.000000E+00   0.000000E+00   0.000000E+00   0.000000E+00   0.000000E+00   0.000000E+00   0.000000E+00   0.000000E+00   0.000000E+00   0.000000E+00   0.000000E+00   0.000000E+00
   0.000000E+00   0.000000E+00   0.000000E+00   0.000000E+00   0.000000E+00   0.000000E+00   0.000000E+00   0.000000E+00   0.000000E+00   0.000000E+00   0.000000E+00   0.000000E+00   0.000000E+00   0.000000E+00   0.000000E+00   0.000000E+00   0.000000E+00   0.000000E+00   0.000000E+00   0.000000E+00   0.000000E+00   0.000000E+00   0.000000E+00   0.000000E+00   0.000000E+00   0.000000E+00   0.000000E+00   0.000000E+00   0.000000E+00   0.000000E+00   0.000000E+00   0.000000E+00   0.000000E+00   0.000000E+00   0.000000E+00   0.000000E+00   0.000000E+00   0.000000E+00   0.000000E+00   0.000000E+00   0.000000E+00   0.000000E+00
   0.000000E+00   0.000000E+00   0.000000E+00   0.000000E+00   0.000000E+00   0.000000E+00   0.000000E+00   0.000000E+00   0.000000E+00   0.000000E+00   0.000000E+00   0.000000E+00   0.000000E+00   0.000000E+00   0.000000E+00   0.000000E+00   0.000000E+00   0.000000E+00   0.000000E+00   0.000000E+00   0.000000E+00   0.000000E+00   0.000000E+00   0.000000E+00   0.000000E+00   0.000000E+00   0.000000E+00   0.000000E+00   0.000000E+00   0.000000E+00   0.000000E+00   0.000000E+00   0.000000E+00   0.000000E+00   0.000000E+00   0.000000E+00   0.000000E+00   0.000000E+00   0.000000E+00   0.000000E+00   0.000000E+00   0.000000E+00
   0.000000E+00   0.000000E+00   0.000000E+00   0.000000E+00   0.000000E+00   0.000000E+00   0.000000E+00   0.000000E+00   0.000000E+00   0.000000E+00   0.000000E+00   0.000000E+00   0.000000E+00   0.000000E+00   0.000000E+00   0.000000E+00   0.000000E+00   0.000000E+00   0.000000E+00   0.000000E+00   0.000000E+00   0.000000E+00   0.000000E+00   0.000000E+00   0.000000E+00   0.000000E+00   0.000000E+00   0.000000E+00   0.000000E+00   0.000000E+00   0.000000E+00   0.000000E+00   0.000000E+00   0.000000E+00   0.000000E+00   0.000000E+00   0.000000E+00   0.000000E+00   0.000000E+00   0.000000E+00   0.000000E+00   0.000000E+00
CONSTANT    1.000000E+00                           #vka2                          
INTERNAL               1  (42E15.6) -1 #hk layer 3                    
   0.000000E+00   0.000000E+00   0.000000E+00   0.000000E+00   0.000000E+00   0.000000E+00   0.000000E+00   0.000000E+00   0.000000E+00   0.000000E+00   0.000000E+00   0.000000E+00   0.000000E+00   0.000000E+00   0.000000E+00   0.000000E+00   0.000000E+00   0.000000E+00   0.000000E+00   0.000000E+00   0.000000E+00   0.000000E+00   0.000000E+00   0.000000E+00   0.000000E+00   0.000000E+00   0.000000E+00   0.000000E+00   0.000000E+00   0.000000E+00   0.000000E+00   0.000000E+00   0.000000E+00   0.000000E+00   0.000000E+00   0.000000E+00   0.000000E+00   0.000000E+00   0.000000E+00   0.000000E+00   0.000000E+00   0.000000E+00
   0.000000E+00   0.000000E+00   0.000000E+00   0.000000E+00   0.000000E+00   0.000000E+00   0.000000E+00   0.000000E+00   0.000000E+00   0.000000E+00   0.000000E+00   0.000000E+00   0.000000E+00   0.000000E+00   0.000000E+00   0.000000E+00   0.000000E+00   0.000000E+00   0.000000E+00   0.000000E+00   0.000000E+00   0.000000E+00   0.000000E+00   0.000000E+00   0.000000E+00   0.000000E+00   0.000000E+00   0.000000E+00   0.000000E+00   0.000000E+00   0.000000E+00   0.000000E+00   0.000000E+00   0.000000E+00   0.000000E+00   0.000000E+00   0.000000E+00   0.000000E+00   0.000000E+00   0.000000E+00   0.000000E+00   0.000000E+00
   0.000000E+00   0.000000E+00   0.000000E+00   0.000000E+00   0.000000E+00   0.000000E+00   0.000000E+00   0.000000E+00   0.000000E+00   0.000000E+00   0.000000E+00   0.000000E+00   0.000000E+00   0.000000E+00   0.000000E+00   0.000000E+00   0.000000E+00   0.000000E+00   0.000000E+00   0.000000E+00   0.000000E+00   0.000000E+00   0.000000E+00   0.000000E+00   0.000000E+00   0.000000E+00   0.000000E+00   0.000000E+00   0.000000E+00   0.000000E+00   0.000000E+00   0.000000E+00   0.000000E+00   0.000000E+00   0.000000E+00   0.000000E+00   0.000000E+00   0.000000E+00   0.000000E+00   0.000000E+00   0.000000E+00   0.000000E+00
   1.363039E+01   9.007564E-01   9.192742E-01   9.417600E-01   9.265490E-01   9.483735E-01   1.011863E+00   9.582937E-01   9.496962E-01   1.005249E+00   9.900385E-01   1.040962E+00   1.020460E+00   1.048898E+00   1.031042E+00   1.024428E+00   9.814409E-01   1.056835E+00   1.050882E+00   1.029058E+00   9.741661E-01   9.675526E-01   9.073699E-01   7.856818E-01   8.895135E-01   8.623982E-01   8.868681E-01   9.358079E-01   9.113380E-01   9.258876E-01   9.086926E-01   9.450668E-01   9.252263E-01   9.992973E-01   9.933451E-01   9.609391E-01   9.272103E-01   8.974497E-01   8.518167E-01   8.227173E-01   8.769479E-01   1.363039E+01
   1.363039E+01   8.723184E-01   9.278717E-01   9.186128E-01   9.543256E-01   1.041624E+00   1.049560E+00   9.953292E-01   9.377919E-01   9.556483E-01   9.404373E-01   9.186128E-01   1.012524E+00   9.404373E-01   9.463894E-01   8.987724E-01   9.404373E-01   9.179515E-01   1.009218E+00   9.834250E-01   9.649072E-01   1.011202E+00   9.371306E-01   9.371306E-01   9.291944E-01   9.371306E-01   8.670276E-01   7.764229E-01   8.392510E-01   8.293308E-01   9.265490E-01   9.325011E-01   8.584301E-01   8.577688E-01   8.776092E-01   8.723184E-01   9.053859E-01   8.623982E-01   8.273467E-01   7.651800E-01   8.928202E-01   1.363039E+01