# Name file for MT3DMS, generated by Flopy version 3.3.0.
LIST              16  td10_mt.list
FTL               10  mt3d_link.ftl 
BTN               31  td10_mt.btn
ADV               32  td10_mt.adv
DSP               33  td10_mt.dsp
SSM               34  td10_mt.ssm
GCG               35  td10_mt.gcg
