# LPF package for  MODFLOW-2005, generated by Flopy.
         0    -1E+30         0  
         0
         0
   1.000000E+00
         0
         0
INTERNAL               1  (42E15.6) -1 #hk layer 1                    
   5.808556E-02   3.198677E-03   3.166933E-03   3.100864E-03   3.060389E-03   3.021899E-03   2.985326E-03   2.945381E-03   2.905898E-03   2.876270E-03   2.853520E-03   2.847237E-03   2.837515E-03   2.839896E-03   2.846046E-03   2.867738E-03   2.872103E-03   2.883545E-03   2.894523E-03   2.907684E-03   2.925474E-03   2.940487E-03   2.969785E-03   2.971967E-03   2.967338E-03   2.970578E-03   2.967271E-03   2.978250E-03   2.975538E-03   2.973356E-03   2.981028E-03   2.979573E-03   2.971107E-03   2.964891E-03   2.966875E-03   2.973488E-03   2.976067E-03   2.975604E-03   2.966809E-03   2.965486E-03   2.960856E-03   5.808556E-02
   5.808556E-02   3.477369E-03   3.391857E-03   3.310181E-03   3.202381E-03   3.100467E-03   2.989890E-03   2.886124E-03   2.778126E-03   2.692746E-03   2.613186E-03   2.547778E-03   2.487066E-03   2.452015E-03   2.431976E-03   2.416302E-03   2.432439E-03   2.445798E-03   2.490373E-03   2.553267E-03   2.597313E-03   2.654321E-03   2.716554E-03   2.774753E-03   2.834407E-03   2.897367E-03   2.957285E-03   3.009796E-03   3.058538E-03   3.090084E-03   3.108734E-03   3.128773E-03   3.143918E-03   3.147423E-03   3.138230E-03   3.131749E-03   3.106155E-03   3.085521E-03   3.061117E-03   3.018394E-03   2.990882E-03   5.808556E-02
   5.808556E-02   4.110544E-03   4.093217E-03   4.070533E-03   4.029066E-03   3.974108E-03   3.924044E-03   3.868028E-03   3.799645E-03   3.750308E-03   3.705799E-03   3.667838E-03   3.630802E-03   3.607986E-03   3.605142E-03   3.619427E-03   3.641384E-03   3.688009E-03   3.723192E-03   3.776167E-03   3.841971E-03   3.913000E-03   3.966304E-03   4.026751E-03   4.076154E-03   4.119869E-03   4.148572E-03   4.180846E-03   4.196387E-03   4.184880E-03   4.155186E-03   4.126879E-03   4.077411E-03   4.008895E-03   3.933766E-03   3.861348E-03   3.766180E-03   3.667110E-03   3.581532E-03   3.492382E-03   3.408391E-03   5.808556E-02
   5.808556E-02   4.704567E-03   4.681618E-03   4.657942E-03   4.622626E-03   4.567007E-03   4.526731E-03   4.472963E-03   4.442012E-03   4.429843E-03   4.409474E-03   4.403919E-03   4.428455E-03   4.460794E-03   4.512181E-03   4.566544E-03   4.623883E-03   4.671368E-03   4.744579E-03   4.789021E-03   4.847352E-03   4.851519E-03   4.883925E-03   4.909255E-03   4.890406E-03   4.879097E-03   4.859455E-03   4.789286E-03   4.738825E-03   4.633406E-03   4.560857E-03   4.468929E-03   4.377994E-03   4.283487E-03   4.208358E-03   4.119869E-03   4.028140E-03   3.957178E-03   3.891506E-03   3.823122E-03   3.773786E-03   5.808556E-02
   5.808556E-02   3.425652E-03   3.449659E-03   3.472674E-03   3.502038E-03   3.531534E-03   3.556334E-03   3.582987E-03   3.599653E-03   3.610433E-03   3.620816E-03   3.615261E-03   3.586095E-03   3.535171E-03   3.499525E-03   3.438151E-03   3.354491E-03   3.263886E-03   3.160782E-03   3.061778E-03   2.956756E-03   2.854842E-03   2.756566E-03   2.666424E-03   2.594205E-03   2.543876E-03   2.536734E-03   2.512594E-03   2.518811E-03   2.556045E-03   2.612127E-03   2.698566E-03   2.784210E-03   2.900409E-03   3.023949E-03   3.160121E-03   3.298607E-03   3.424858E-03   3.566982E-03   3.701831E-03   3.837937E-03   5.808556E-02
   5.808556E-02   2.876071E-03   2.932881E-03   3.001860E-03   3.079238E-03   3.194709E-03   3.295962E-03   3.405944E-03   3.497276E-03   3.577630E-03   3.655338E-03   3.704609E-03   3.746670E-03   3.772132E-03   3.779209E-03   3.773587E-03   3.749779E-03   3.714132E-03   3.673129E-03   3.619758E-03   3.578093E-03   3.540198E-03   3.496350E-03   3.472740E-03   3.462026E-03   3.432199E-03   3.419105E-03   3.426776E-03   3.445294E-03   3.475848E-03   3.501905E-03   3.543570E-03   3.580011E-03   3.631794E-03   3.676369E-03   3.734965E-03   3.793957E-03   3.846137E-03   3.896797E-03   3.933964E-03   3.979928E-03   5.808556E-02
   5.808556E-02   2.531443E-03   2.522515E-03   2.518084E-03   2.524631E-03   2.568148E-03   2.619006E-03   2.670458E-03   2.711925E-03   2.776406E-03   2.857686E-03   2.933080E-03   3.007680E-03   3.102120E-03   3.197288E-03   3.303104E-03   3.387492E-03   3.486628E-03   3.608118E-03   3.723259E-03   3.850304E-03   3.962468E-03   4.086868E-03   4.182697E-03   4.263845E-03   4.339239E-03   4.419394E-03   4.477262E-03   4.524681E-03   4.565089E-03   4.595247E-03   4.625669E-03   4.627652E-03   4.626065E-03   4.631422E-03   4.652056E-03   4.655760E-03   4.646964E-03   4.668326E-03   4.671500E-03   4.691407E-03   5.808556E-02
   5.808556E-02   3.730071E-03   3.609441E-03   3.504749E-03   3.410242E-03   3.311503E-03   3.225462E-03   3.181813E-03   3.140677E-03   3.140214E-03   3.164618E-03   3.211970E-03   3.277642E-03   3.372744E-03   3.485769E-03   3.607060E-03   3.784896E-03   3.949969E-03   4.143678E-03   4.334543E-03   4.523490E-03   4.704832E-03   4.910379E-03   5.074658E-03   5.240987E-03   5.384830E-03   5.508238E-03   5.613128E-03   5.705320E-03   5.761931E-03   5.795263E-03   5.808556E-03   5.807498E-03   5.790435E-03   5.730848E-03   5.672252E-03   5.579531E-03   5.468359E-03   5.343430E-03   5.217708E-03   5.090530E-03   5.808556E-02
   5.808556E-02   3.831587E-03   3.717836E-03   3.602629E-03   3.502501E-03   3.409581E-03   3.356607E-03   3.313289E-03   3.279560E-03   3.273873E-03   3.259323E-03   3.271756E-03   3.275658E-03   3.307403E-03   3.328698E-03   3.361501E-03   3.393643E-03   3.427636E-03   3.455016E-03   3.480412E-03   3.519960E-03   3.561295E-03   3.583185E-03   3.615459E-03   3.641516E-03   3.666251E-03   3.673724E-03   3.690324E-03   3.679808E-03   3.655272E-03   3.641913E-03   3.610631E-03   3.562286E-03   3.490927E-03   3.418972E-03   3.344637E-03   3.250924E-03   3.174141E-03   3.097557E-03   3.016410E-03   2.923027E-03   5.808556E-02
   5.808556E-02   3.352904E-03   3.231149E-03   3.087042E-03   2.998685E-03   2.918199E-03   2.858149E-03   2.806365E-03   2.771909E-03   2.768536E-03   2.771843E-03   2.781433E-03   2.788112E-03   2.805373E-03   2.853652E-03   2.897764E-03   2.927789E-03   2.953383E-03   2.979573E-03   3.012375E-03   3.059662E-03   3.084992E-03   3.139883E-03   3.167858E-03   3.203042E-03   3.248146E-03   3.272087E-03   3.297284E-03   3.309982E-03   3.307337E-03   3.299202E-03   3.291861E-03   3.267193E-03   3.243384E-03   3.225726E-03   3.204762E-03   3.168652E-03   3.137701E-03   3.124540E-03   3.119911E-03   3.121829E-03   5.808556E-02
   5.808556E-02   4.020799E-03   4.004464E-03   4.004067E-03   3.983168E-03   3.964783E-03   3.939850E-03   3.900103E-03   3.875832E-03   3.834233E-03   3.797330E-03   3.762344E-03   3.702559E-03   3.657190E-03   3.614732E-03   3.571016E-03   3.525648E-03   3.500583E-03   3.447146E-03   3.399793E-03   3.364345E-03   3.333725E-03   3.307204E-03   3.249403E-03   3.220237E-03   3.179697E-03   3.118919E-03   3.045046E-03   2.967668E-03   2.906560E-03   2.823296E-03   2.732162E-03   2.642153E-03   2.542818E-03   2.454396E-03   2.352681E-03   2.275303E-03   2.208308E-03   2.135560E-03   2.101897E-03   2.078023E-03   5.808556E-02
   5.808556E-02   2.905766E-03   2.936651E-03   2.971504E-03   2.989228E-03   3.002918E-03   3.015219E-03   3.034729E-03   3.043591E-03   3.041144E-03   3.042268E-03   3.029174E-03   3.011714E-03   2.997958E-03   2.969586E-03   2.933477E-03   2.895383E-03   2.859670E-03   2.831629E-03   2.804778E-03   2.769131E-03   2.736395E-03   2.711131E-03   2.678659E-03   2.648369E-03   2.614442E-03   2.582168E-03   2.569007E-03   2.555714E-03   2.559087E-03   2.556773E-03   2.565304E-03   2.584086E-03   2.612061E-03   2.641557E-03   2.690299E-03   2.756301E-03   2.823032E-03   2.893928E-03   2.990617E-03   3.080560E-03   5.808556E-02
   5.808556E-02   3.612747E-03   3.606002E-03   3.582193E-03   3.578953E-03   3.569760E-03   3.566122E-03   3.558318E-03   3.527698E-03   3.494102E-03   3.463547E-03   3.426975E-03   3.361501E-03   3.316794E-03   3.262233E-03   3.182077E-03   3.115215E-03   3.039821E-03   2.987310E-03   2.929244E-03   2.884206E-03   2.857884E-03   2.823296E-03   2.812450E-03   2.809804E-03   2.817741E-03   2.842078E-03   2.870913E-03   2.924747E-03   2.986318E-03   3.032613E-03   3.092002E-03   3.138627E-03   3.178109E-03   3.217195E-03   3.271492E-03   3.319307E-03   3.352573E-03   3.403828E-03   3.445691E-03   3.491522E-03   5.808556E-02
   5.808556E-02   4.433018E-03   4.384144E-03   4.313380E-03   4.248303E-03   4.176547E-03   4.101550E-03   4.028206E-03   3.937800E-03   3.844881E-03   3.769950E-03   3.700905E-03   3.620088E-03   3.547340E-03   3.452900E-03   3.386963E-03   3.320299E-03   3.260117E-03   3.186971E-03   3.102319E-03   3.047559E-03   2.977721E-03   2.933939E-03   2.867276E-03   2.831100E-03   2.788972E-03   2.737585E-03   2.699558E-03   2.679056E-03   2.660274E-03   2.649361E-03   2.646121E-03   2.648568E-03   2.659678E-03   2.672707E-03   2.706502E-03   2.746183E-03   2.772041E-03   2.816484E-03   2.872302E-03   2.918795E-03   5.808556E-02
   5.808556E-02   3.507990E-03   3.508585E-03   3.510172E-03   3.529947E-03   3.538015E-03   3.554152E-03   3.586095E-03   3.609375E-03   3.632191E-03   3.632985E-03   3.651172E-03   3.647138E-03   3.657256E-03   3.629413E-03   3.629017E-03   3.622998E-03   3.564800E-03   3.511958E-03   3.457529E-03   3.400785E-03   3.323606E-03   3.246360E-03   3.177514E-03   3.125466E-03   3.038631E-03   2.968793E-03   2.901864E-03   2.841285E-03   2.763510E-03   2.747373E-03   2.711991E-03   2.707891E-03   2.724160E-03   2.744728E-03   2.793072E-03   2.857355E-03   2.961253E-03   3.046699E-03   3.155293E-03   3.251585E-03   5.808556E-02
   5.808556E-02   3.750639E-03   3.725970E-03   3.690588E-03   3.630736E-03   3.592775E-03   3.530013E-03   3.475914E-03   3.414806E-03   3.366792E-03   3.314810E-03   3.263754E-03   3.220965E-03   3.188360E-03   3.145571E-03   3.133601E-03   3.109528E-03   3.098946E-03   3.093589E-03   3.072161E-03   3.068524E-03   3.066408E-03   3.068722E-03   3.062638E-03   3.044715E-03   3.049675E-03   3.023155E-03   3.014889E-03   3.006556E-03   3.010590E-03   3.018857E-03   3.020179E-03   3.017203E-03   3.037573E-03   3.051924E-03   3.077783E-03   3.096168E-03   3.114421E-03   3.170504E-03   3.183665E-03   3.220370E-03   5.808556E-02
   5.808556E-02   3.455876E-03   3.471946E-03   3.469103E-03   3.478957E-03   3.480478E-03   3.480081E-03   3.478692E-03   3.484644E-03   3.477171E-03   3.476443E-03   3.470425E-03   3.464870E-03   3.472012E-03   3.478824E-03   3.470558E-03   3.472872E-03   3.473931E-03   3.476774E-03   3.464672E-03   3.460108E-03   3.430546E-03   3.428297E-03   3.403431E-03   3.403100E-03   3.379093E-03   3.362096E-03   3.353565E-03   3.327310E-03   3.308792E-03   3.289282E-03   3.254958E-03   3.232208E-03   3.191998E-03   3.142793E-03   3.076328E-03   3.011913E-03   2.913041E-03   2.831232E-03   2.728525E-03   2.630182E-03   5.808556E-02
   5.808556E-02   2.800612E-03   2.860596E-03   2.917406E-03   2.963568E-03   3.020444E-03   3.066011E-03   3.112371E-03   3.154433E-03   3.191138E-03   3.244244E-03   3.284983E-03   3.333658E-03   3.390865E-03   3.445558E-03   3.487753E-03   3.552829E-03   3.618104E-03   3.699053E-03   3.774778E-03   3.844550E-03   3.916968E-03   4.005787E-03   4.081246E-03   4.149365E-03   4.218212E-03   4.278659E-03   4.338644E-03   4.386459E-03   4.408746E-03   4.422105E-03   4.415624E-03   4.394858E-03   4.355508E-03   4.292812E-03   4.213648E-03   4.120597E-03   3.996396E-03   3.868160E-03   3.732782E-03   3.587286E-03   5.808556E-02
   5.808556E-02   3.158335E-03   3.145439E-03   3.145968E-03   3.135915E-03   3.114421E-03   3.100004E-03   3.084132E-03   3.061910E-03   3.030695E-03   3.001992E-03   3.002720E-03   2.988302E-03   3.006622E-03   3.040747E-03   3.077783E-03   3.155888E-03   3.239152E-03   3.340140E-03   3.456669E-03   3.584706E-03   3.741909E-03   3.883900E-03   4.034556E-03   4.177804E-03   4.316356E-03   4.426735E-03   4.542273E-03   4.642732E-03   4.722225E-03   4.772356E-03   4.795371E-03   4.800330E-03   4.782011E-03   4.747423E-03   4.705097E-03   4.660918E-03   4.613235E-03   4.532352E-03   4.468202E-03   4.401604E-03   5.808556E-02
   5.808556E-02   4.120068E-03   4.087066E-03   4.035283E-03   3.967098E-03   3.893093E-03   3.824908E-03   3.741777E-03   3.653024E-03   3.561691E-03   3.486893E-03   3.426446E-03   3.357864E-03   3.310511E-03   3.254892E-03   3.239416E-03   3.212367E-03   3.213954E-03   3.214417E-03   3.230620E-03   3.261902E-03   3.296755E-03   3.332336E-03   3.371488E-03   3.425586E-03   3.480676E-03   3.521614E-03   3.562154E-03   3.601967E-03   3.633183E-03   3.653288E-03   3.672930E-03   3.678552E-03   3.669293E-03   3.665457E-03   3.659968E-03   3.653883E-03   3.632852E-03   3.622668E-03   3.590592E-03   3.592907E-03   5.808556E-02
CONSTANT    1.000000E+00                           #vka1                          
