# LPF package for  MODFLOW-2005, generated by Flopy.
         0    -1E+30         0  
         0         0         0         0         0         0         0         0         0         0         0         0         0         0         0         0         0         0         0         0
         0         0         0         0         0         0         0         0         0         0         0         0         0         0         0         0         0         0         0         0
   1.000000E+00   1.000000E+00   1.000000E+00   1.000000E+00   1.000000E+00   1.000000E+00   1.000000E+00   1.000000E+00   1.000000E+00   1.000000E+00   1.000000E+00   1.000000E+00   1.000000E+00   1.000000E+00   1.000000E+00   1.000000E+00   1.000000E+00   1.000000E+00   1.000000E+00   1.000000E+00
         0         0         0         0         0         0         0         0         0         0         0         0         0         0         0         0         0         0         0         0
         0         0         0         0         0         0         0         0         0         0         0         0         0         0         0         0         0         0         0         0
INTERNAL               1  (42E15.6) -1 #hk layer 1                    
   0.000000E+00   0.000000E+00   0.000000E+00   0.000000E+00   0.000000E+00   0.000000E+00   0.000000E+00   0.000000E+00   0.000000E+00   0.000000E+00   0.000000E+00   0.000000E+00   0.000000E+00   0.000000E+00   0.000000E+00   0.000000E+00   0.000000E+00   0.000000E+00   0.000000E+00   0.000000E+00   0.000000E+00   0.000000E+00   0.000000E+00   0.000000E+00   0.000000E+00   0.000000E+00   0.000000E+00   0.000000E+00   0.000000E+00   0.000000E+00   0.000000E+00   0.000000E+00   0.000000E+00   0.000000E+00   0.000000E+00   0.000000E+00   0.000000E+00   0.000000E+00   0.000000E+00   0.000000E+00   0.000000E+00   0.000000E+00
   0.000000E+00   0.000000E+00   0.000000E+00   0.000000E+00   0.000000E+00   0.000000E+00   0.000000E+00   0.000000E+00   0.000000E+00   0.000000E+00   0.000000E+00   0.000000E+00   0.000000E+00   0.000000E+00   0.000000E+00   0.000000E+00   0.000000E+00   0.000000E+00   0.000000E+00   0.000000E+00   0.000000E+00   0.000000E+00   0.000000E+00   0.000000E+00   0.000000E+00   0.000000E+00   0.000000E+00   0.000000E+00   0.000000E+00   0.000000E+00   0.000000E+00   0.000000E+00   0.000000E+00   0.000000E+00   0.000000E+00   0.000000E+00   0.000000E+00   0.000000E+00   0.000000E+00   0.000000E+00   0.000000E+00   0.000000E+00
   0.000000E+00   0.000000E+00   0.000000E+00   0.000000E+00   0.000000E+00   0.000000E+00   0.000000E+00   0.000000E+00   0.000000E+00   0.000000E+00   0.000000E+00   0.000000E+00   0.000000E+00   0.000000E+00   0.000000E+00   0.000000E+00   0.000000E+00   0.000000E+00   0.000000E+00   0.000000E+00   0.000000E+00   0.000000E+00   0.000000E+00   0.000000E+00   0.000000E+00   0.000000E+00   0.000000E+00   0.000000E+00   0.000000E+00   0.000000E+00   0.000000E+00   0.000000E+00   0.000000E+00   0.000000E+00   0.000000E+00   0.000000E+00   0.000000E+00   0.000000E+00   0.000000E+00   0.000000E+00   0.000000E+00   0.000000E+00
   0.000000E+00   0.000000E+00   0.000000E+00   0.000000E+00   0.000000E+00   0.000000E+00   0.000000E+00   0.000000E+00   0.000000E+00   0.000000E+00   0.000000E+00   0.000000E+00   0.000000E+00   0.000000E+00   0.000000E+00   0.000000E+00   0.000000E+00   0.000000E+00   0.000000E+00   0.000000E+00   0.000000E+00   0.000000E+00   0.000000E+00   0.000000E+00   0.000000E+00   0.000000E+00   0.000000E+00   0.000000E+00   0.000000E+00   0.000000E+00   0.000000E+00   0.000000E+00   0.000000E+00   0.000000E+00   0.000000E+00   0.000000E+00   0.000000E+00   0.000000E+00   0.000000E+00   0.000000E+00   0.000000E+00   0.000000E+00
   0.000000E+00   0.000000E+00   0.000000E+00   0.000000E+00   0.000000E+00   0.000000E+00   0.000000E+00   0.000000E+00   0.000000E+00   0.000000E+00   0.000000E+00   0.000000E+00   0.000000E+00   0.000000E+00   0.000000E+00   0.000000E+00   0.000000E+00   0.000000E+00   0.000000E+00   0.000000E+00   0.000000E+00   0.000000E+00   0.000000E+00   0.000000E+00   0.000000E+00   0.000000E+00   0.000000E+00   0.000000E+00   0.000000E+00   0.000000E+00   0.000000E+00   0.000000E+00   0.000000E+00   0.000000E+00   0.000000E+00   0.000000E+00   0.000000E+00   0.000000E+00   0.000000E+00   0.000000E+00   0.000000E+00   0.000000E+00
   0.000000E+00   0.000000E+00   0.000000E+00   0.000000E+00   0.000000E+00   0.000000E+00   0.000000E+00   0.000000E+00   0.000000E+00   0.000000E+00   0.000000E+00   0.000000E+00   0.000000E+00   0.000000E+00   0.000000E+00   0.000000E+00   0.000000E+00   0.000000E+00   0.000000E+00   0.000000E+00   0.000000E+00   0.000000E+00   0.000000E+00   0.000000E+00   0.000000E+00   0.000000E+00   0.000000E+00   0.000000E+00   0.000000E+00   0.000000E+00   0.000000E+00   0.000000E+00   0.000000E+00   0.000000E+00   0.000000E+00   0.000000E+00   0.000000E+00   0.000000E+00   0.000000E+00   0.000000E+00   0.000000E+00   0.000000E+00
   0.000000E+00   0.000000E+00   0.000000E+00   0.000000E+00   0.000000E+00   0.000000E+00   0.000000E+00   0.000000E+00   0.000000E+00   0.000000E+00   0.000000E+00   0.000000E+00   0.000000E+00   0.000000E+00   0.000000E+00   0.000000E+00   0.000000E+00   0.000000E+00   0.000000E+00   0.000000E+00   0.000000E+00   0.000000E+00   0.000000E+00   0.000000E+00   0.000000E+00   0.000000E+00   0.000000E+00   0.000000E+00   0.000000E+00   0.000000E+00   0.000000E+00   0.000000E+00   0.000000E+00   0.000000E+00   0.000000E+00   0.000000E+00   0.000000E+00   0.000000E+00   0.000000E+00   0.000000E+00   0.000000E+00   0.000000E+00
   1.625793E-01   1.000000E+00   1.145455E-02   1.205969E-02   1.208350E-02   1.115761E-02   1.109213E-02   1.151143E-02   1.069731E-02   1.088513E-02   1.036531E-02   9.886496E-03   9.750258E-03   1.021585E-02   1.071517E-02   1.125813E-02   1.125483E-02   1.103923E-02   1.204051E-02   1.142016E-02   1.162981E-02   1.106039E-02   1.134741E-02   1.131765E-02   1.091026E-02   1.135006E-02   1.205109E-02   1.201736E-02   1.176539E-02   1.124821E-02   1.046848E-02   1.221576E-02   1.241748E-02   1.303055E-02   1.358277E-02   1.293730E-02   1.345513E-02   1.418791E-02   1.360856E-02   1.370314E-02   1.492068E-02   1.625793E-01
   1.625793E-01   1.000000E+00   1.201604E-02   1.271376E-02   1.168735E-02   1.159410E-02   1.186856E-02   1.180705E-02   1.081569E-02   1.130773E-02   1.086860E-02   9.396437E-03   9.633199E-03   9.482413E-03   1.033092E-02   1.078196E-02   1.103592E-02   1.067879E-02   1.069003E-02   1.084082E-02   1.166155E-02   1.133749E-02   1.044798E-02   1.097706E-02   1.094465E-02   1.088844E-02   1.185996E-02   1.174158E-02   1.223957E-02   1.195387E-02   1.122110E-02   1.196776E-02   1.281627E-02   1.362245E-02   1.354772E-02   1.383673E-02   1.279114E-02   1.416873E-02   1.359666E-02   1.363303E-02   1.504700E-02   1.625793E-01
   1.625793E-01   1.000000E+00   1.291415E-02   1.264233E-02   1.216749E-02   1.135204E-02   1.211722E-02   1.254908E-02   1.158682E-02   1.164370E-02   1.164833E-02   1.042153E-02   9.985698E-03   1.005183E-02   1.047311E-02   1.049097E-02   1.121779E-02   9.735708E-03   1.027338E-02   1.076080E-02   1.080842E-02   1.131898E-02   1.076741E-02   1.112454E-02   1.056107E-02   1.181168E-02   1.199223E-02   1.181036E-02   1.146513E-02   1.132030E-02   1.140098E-02   1.187186E-02   1.264763E-02   1.385062E-02   1.393924E-02   1.363899E-02   1.387377E-02   1.382945E-02   1.406952E-02   1.413368E-02   1.555954E-02   1.625793E-01
   1.625793E-01   1.000000E+00   1.344786E-02   1.254710E-02   1.285066E-02   1.285595E-02   1.381557E-02   1.253718E-02   1.184938E-02   1.212582E-02   1.164568E-02   1.146910E-02   1.021452E-02   1.022444E-02   9.755549E-03   1.033423E-02   1.049758E-02   1.022312E-02   1.030579E-02   1.126144E-02   1.102335E-02   1.065168E-02   1.042219E-02   1.115827E-02   1.137585E-02   1.225677E-02   1.246443E-02   1.158748E-02   1.182028E-02   1.126408E-02   1.226735E-02   1.208879E-02   1.321771E-02   1.351333E-02   1.374216E-02   1.401463E-02   1.334403E-02   1.368131E-02   1.452652E-02   1.437771E-02   1.487042E-02   1.625793E-01
   1.625793E-01   1.000000E+00   1.313305E-02   1.357219E-02   1.313835E-02   1.328583E-02   1.337775E-02   1.298690E-02   1.269326E-02   1.170587E-02   1.233679E-02   1.206961E-02   1.112785E-02   1.177795E-02   1.034944E-02   1.095127E-02   1.094333E-02   1.097243E-02   1.143537E-02   1.099359E-02   1.097970E-02   1.047377E-02   1.088447E-02   1.040301E-02   1.098103E-02   1.241946E-02   1.210995E-02   1.210069E-02   1.236920E-02   1.172637E-02   1.236325E-02   1.205638E-02   1.289365E-02   1.282420E-02   1.275873E-02   1.332485E-02   1.311652E-02   1.357814E-02   1.369454E-02   1.478775E-02   1.519977E-02   1.625793E-01
   1.625793E-01   1.000000E+00   1.309139E-02   1.304311E-02   1.290555E-02   1.290092E-02   1.310726E-02   1.295581E-02   1.263374E-02   1.226272E-02   1.164171E-02   1.225016E-02   1.168073E-02   1.218667E-02   1.135866E-02   1.075286E-02   1.095127E-02   1.126012E-02   1.213310E-02   1.145521E-02   1.150944E-02   1.067019E-02   1.151077E-02   1.094730E-02   1.120853E-02   1.221444E-02   1.194924E-02   1.286653E-02   1.152532E-02   1.187253E-02   1.252726E-02   1.248956E-02   1.290158E-02   1.202133E-02   1.251006E-02   1.268268E-02   1.252329E-02   1.327326E-02   1.440483E-02   1.459860E-02   1.521829E-02   1.625793E-01
   0.000000E+00   0.000000E+00   0.000000E+00   0.000000E+00   0.000000E+00   0.000000E+00   0.000000E+00   0.000000E+00   0.000000E+00   0.000000E+00   0.000000E+00   0.000000E+00   0.000000E+00   0.000000E+00   0.000000E+00   0.000000E+00   0.000000E+00   0.000000E+00   0.000000E+00   0.000000E+00   0.000000E+00   0.000000E+00   0.000000E+00   0.000000E+00   0.000000E+00   0.000000E+00   0.000000E+00   0.000000E+00   0.000000E+00   0.000000E+00   0.000000E+00   0.000000E+00   0.000000E+00   0.000000E+00   0.000000E+00   0.000000E+00   0.000000E+00   0.000000E+00   0.000000E+00   0.000000E+00   0.000000E+00   0.000000E+00
   0.000000E+00   0.000000E+00   0.000000E+00   0.000000E+00   0.000000E+00   0.000000E+00   0.000000E+00   0.000000E+00   0.000000E+00   0.000000E+00   0.000000E+00   0.000000E+00   0.000000E+00   0.000000E+00   0.000000E+00   0.000000E+00   0.000000E+00   0.000000E+00   0.000000E+00   0.000000E+00   0.000000E+00   0.000000E+00   0.000000E+00   0.000000E+00   0.000000E+00   0.000000E+00   0.000000E+00   0.000000E+00   0.000000E+00   0.000000E+00   0.000000E+00   0.000000E+00   0.000000E+00   0.000000E+00   0.000000E+00   0.000000E+00   0.000000E+00   0.000000E+00   0.000000E+00   0.000000E+00   0.000000E+00   0.000000E+00
   0.000000E+00   0.000000E+00   0.000000E+00   0.000000E+00   0.000000E+00   0.000000E+00   0.000000E+00   0.000000E+00   0.000000E+00   0.000000E+00   0.000000E+00   0.000000E+00   0.000000E+00   0.000000E+00   0.000000E+00   0.000000E+00   0.000000E+00   0.000000E+00   0.000000E+00   0.000000E+00   0.000000E+00   0.000000E+00   0.000000E+00   0.000000E+00   0.000000E+00   0.000000E+00   0.000000E+00   0.000000E+00   0.000000E+00   0.000000E+00   0.000000E+00   0.000000E+00   0.000000E+00   0.000000E+00   0.000000E+00   0.000000E+00   0.000000E+00   0.000000E+00   0.000000E+00   0.000000E+00   0.000000E+00   0.000000E+00
   0.000000E+00   0.000000E+00   0.000000E+00   0.000000E+00   0.000000E+00   0.000000E+00   0.000000E+00   0.000000E+00   0.000000E+00   0.000000E+00   0.000000E+00   0.000000E+00   0.000000E+00   0.000000E+00   0.000000E+00   0.000000E+00   0.000000E+00   0.000000E+00   0.000000E+00   0.000000E+00   0.000000E+00   0.000000E+00   0.000000E+00   0.000000E+00   0.000000E+00   0.000000E+00   0.000000E+00   0.000000E+00   0.000000E+00   0.000000E+00   0.000000E+00   0.000000E+00   0.000000E+00   0.000000E+00   0.000000E+00   0.000000E+00   0.000000E+00   0.000000E+00   0.000000E+00   0.000000E+00   0.000000E+00   0.000000E+00
   0.000000E+00   0.000000E+00   0.000000E+00   0.000000E+00   0.000000E+00   0.000000E+00   0.000000E+00   0.000000E+00   0.000000E+00   0.000000E+00   0.000000E+00   0.000000E+00   0.000000E+00   0.000000E+00   0.000000E+00   0.000000E+00   0.000000E+00   0.000000E+00   0.000000E+00   0.000000E+00   0.000000E+00   0.000000E+00   0.000000E+00   0.000000E+00   0.000000E+00   0.000000E+00   0.000000E+00   0.000000E+00   0.000000E+00   0.000000E+00   0.000000E+00   0.000000E+00   0.000000E+00   0.000000E+00   0.000000E+00   0.000000E+00   0.000000E+00   0.000000E+00   0.000000E+00   0.000000E+00   0.000000E+00   0.000000E+00
   0.000000E+00   0.000000E+00   0.000000E+00   0.000000E+00   0.000000E+00   0.000000E+00   0.000000E+00   0.000000E+00   0.000000E+00   0.000000E+00   0.000000E+00   0.000000E+00   0.000000E+00   0.000000E+00   0.000000E+00   0.000000E+00   0.000000E+00   0.000000E+00   0.000000E+00   0.000000E+00   0.000000E+00   0.000000E+00   0.000000E+00   0.000000E+00   0.000000E+00   0.000000E+00   0.000000E+00   0.000000E+00   0.000000E+00   0.000000E+00   0.000000E+00   0.000000E+00   0.000000E+00   0.000000E+00   0.000000E+00   0.000000E+00   0.000000E+00   0.000000E+00   0.000000E+00   0.000000E+00   0.000000E+00   0.000000E+00
   0.000000E+00   0.000000E+00   0.000000E+00   0.000000E+00   0.000000E+00   0.000000E+00   0.000000E+00   0.000000E+00   0.000000E+00   0.000000E+00   0.000000E+00   0.000000E+00   0.000000E+00   0.000000E+00   0.000000E+00   0.000000E+00   0.000000E+00   0.000000E+00   0.000000E+00   0.000000E+00   0.000000E+00   0.000000E+00   0.000000E+00   0.000000E+00   0.000000E+00   0.000000E+00   0.000000E+00   0.000000E+00   0.000000E+00   0.000000E+00   0.000000E+00   0.000000E+00   0.000000E+00   0.000000E+00   0.000000E+00   0.000000E+00   0.000000E+00   0.000000E+00   0.000000E+00   0.000000E+00   0.000000E+00   0.000000E+00
CONSTANT    1.000000E+00                           #vka1                          
INTERNAL               1  (42E15.6) -1 #hk layer 2                    
   0.000000E+00   0.000000E+00   0.000000E+00   0.000000E+00   0.000000E+00   0.000000E+00   0.000000E+00   0.000000E+00   0.000000E+00   0.000000E+00   0.000000E+00   0.000000E+00   0.000000E+00   0.000000E+00   0.000000E+00   0.000000E+00   0.000000E+00   0.000000E+00   0.000000E+00   0.000000E+00   0.000000E+00   0.000000E+00   0.000000E+00   0.000000E+00   0.000000E+00   0.000000E+00   0.000000E+00   0.000000E+00   0.000000E+00   0.000000E+00   0.000000E+00   0.000000E+00   0.000000E+00   0.000000E+00   0.000000E+00   0.000000E+00   0.000000E+00   0.000000E+00   0.000000E+00   0.000000E+00   0.000000E+00   0.000000E+00
   0.000000E+00   0.000000E+00   0.000000E+00   0.000000E+00   0.000000E+00   0.000000E+00   0.000000E+00   0.000000E+00   0.000000E+00   0.000000E+00   0.000000E+00   0.000000E+00   0.000000E+00   0.000000E+00   0.000000E+00   0.000000E+00   0.000000E+00   0.000000E+00   0.000000E+00   0.000000E+00   0.000000E+00   0.000000E+00   0.000000E+00   0.000000E+00   0.000000E+00   0.000000E+00   0.000000E+00   0.000000E+00   0.000000E+00   0.000000E+00   0.000000E+00   0.000000E+00   0.000000E+00   0.000000E+00   0.000000E+00   0.000000E+00   0.000000E+00   0.000000E+00   0.000000E+00   0.000000E+00   0.000000E+00   0.000000E+00
   0.000000E+00   0.000000E+00   0.000000E+00   0.000000E+00   0.000000E+00   0.000000E+00   0.000000E+00   0.000000E+00   0.000000E+00   0.000000E+00   0.000000E+00   0.000000E+00   0.000000E+00   0.000000E+00   0.000000E+00   0.000000E+00   0.000000E+00   0.000000E+00   0.000000E+00   0.000000E+00   0.000000E+00   0.000000E+00   0.000000E+00   0.000000E+00   0.000000E+00   0.000000E+00   0.000000E+00   0.000000E+00   0.000000E+00   0.000000E+00   0.000000E+00   0.000000E+00   0.000000E+00   0.000000E+00   0.000000E+00   0.000000E+00   0.000000E+00   0.000000E+00   0.000000E+00   0.000000E+00   0.000000E+00   0.000000E+00
   0.000000E+00   0.000000E+00   0.000000E+00   0.000000E+00   0.000000E+00   0.000000E+00   0.000000E+00   0.000000E+00   0.000000E+00   0.000000E+00   0.000000E+00   0.000000E+00   0.000000E+00   0.000000E+00   0.000000E+00   0.000000E+00   0.000000E+00   0.000000E+00   0.000000E+00   0.000000E+00   0.000000E+00   0.000000E+00   0.000000E+00   0.000000E+00   0.000000E+00   0.000000E+00   0.000000E+00   0.000000E+00   0.000000E+00   0.000000E+00   0.000000E+00   0.000000E+00   0.000000E+00   0.000000E+00   0.000000E+00   0.000000E+00   0.000000E+00   0.000000E+00   0.000000E+00   0.000000E+00   0.000000E+00   0.000000E+00
   0.000000E+00   0.000000E+00   0.000000E+00   0.000000E+00   0.000000E+00   0.000000E+00   0.000000E+00   0.000000E+00   0.000000E+00   0.000000E+00   0.000000E+00   0.000000E+00   0.000000E+00   0.000000E+00   0.000000E+00   0.000000E+00   0.000000E+00   0.000000E+00   0.000000E+00   0.000000E+00   0.000000E+00   0.000000E+00   0.000000E+00   0.000000E+00   0.000000E+00   0.000000E+00   0.000000E+00   0.000000E+00   0.000000E+00   0.000000E+00   0.000000E+00   0.000000E+00   0.000000E+00   0.000000E+00   0.000000E+00   0.000000E+00   0.000000E+00   0.000000E+00   0.000000E+00   0.000000E+00   0.000000E+00   0.000000E+00
   1.625793E-01   1.000000E+00   1.156103E-02   1.182491E-02   1.144596E-02   1.095127E-02   1.059877E-02   1.010210E-02   1.072641E-02   9.922209E-03   1.064043E-02   1.032365E-02   1.125483E-02   1.017088E-02   1.081569E-02   1.183681E-02   1.192477E-02   1.195321E-02   1.168404E-02   1.195387E-02   1.195718E-02   1.210863E-02   1.168933E-02   1.104121E-02   1.096185E-02   1.167743E-02   1.137255E-02   1.144662E-02   1.057628E-02   1.122176E-02   1.202926E-02   1.208548E-02   1.192808E-02   1.311917E-02   1.312842E-02   1.337048E-02   1.288042E-02   1.185533E-02   1.356624E-02   1.394916E-02   1.439226E-02   1.625793E-01
   1.625793E-01   1.000000E+00   1.236523E-02   1.202662E-02   1.204778E-02   1.123763E-02   1.073368E-02   9.980408E-03   1.039309E-02   9.488365E-03   9.874592E-03   1.036862E-02   1.004059E-02   1.085206E-02   1.105708E-02   1.197371E-02   1.252858E-02   1.279312E-02   1.225941E-02   1.168999E-02   1.176142E-02   1.174422E-02   1.129980E-02   1.099558E-02   1.125483E-02   1.212648E-02   1.188112E-02   1.187715E-02   1.134741E-02   1.095986E-02   1.130178E-02   1.182491E-02   1.250345E-02   1.276402E-02   1.323887E-02   1.280172E-02   1.305303E-02   1.287777E-02   1.365420E-02   1.476857E-02   1.520572E-02   1.625793E-01
   1.625793E-01   1.000000E+00   1.246972E-02   1.256892E-02   1.224486E-02   1.245187E-02   1.132493E-02   1.130046E-02   1.022511E-02   9.842185E-03   1.016360E-02   1.003398E-02   9.772083E-03   9.677510E-03   1.025354E-02   1.114240E-02   1.218865E-02   1.199421E-02   1.201405E-02   1.174290E-02   1.091423E-02   1.105841E-02   1.070128E-02   1.081437E-02   1.155111E-02   1.163246E-02   1.226669E-02   1.221841E-02   1.158021E-02   1.129120E-02   1.219394E-02   1.179449E-02   1.237779E-02   1.411251E-02   1.378382E-02   1.381424E-02   1.297102E-02   1.396503E-02   1.445046E-02   1.491671E-02   1.542793E-02   1.625793E-01
   1.625793E-01   1.000000E+00   1.266945E-02   1.358938E-02   1.268003E-02   1.291415E-02   1.223825E-02   1.172438E-02   1.164502E-02   1.107692E-02   1.025487E-02   9.625264E-03   9.516803E-03   1.001215E-02   1.043012E-02   1.067350E-02   1.177531E-02   1.194395E-02   1.115761E-02   1.147638E-02   1.089175E-02   1.078659E-02   1.095523E-02   1.070062E-02   1.103460E-02   1.044004E-02   1.131369E-02   1.202265E-02   1.164502E-02   1.090762E-02   1.099161E-02   1.142810E-02   1.257818E-02   1.390088E-02   1.369983E-02   1.402389E-02   1.384400E-02   1.414029E-02   1.428777E-02   1.469119E-02   1.600397E-02   1.625793E-01
   1.625793E-01   1.000000E+00   1.329178E-02   1.296309E-02   1.284206E-02   1.213773E-02   1.274154E-02   1.225743E-02   1.113380E-02   1.150349E-02   1.055380E-02   1.007167E-02   9.708594E-03   9.754888E-03   1.040830E-02   1.138511E-02   1.150217E-02   1.040367E-02   1.097111E-02   1.080709E-02   1.072641E-02   1.055909E-02   1.071450E-02   1.117811E-02   1.075815E-02   1.111594E-02   1.075948E-02   1.124424E-02   1.148497E-02   1.098566E-02   1.170256E-02   1.102203E-02   1.214566E-02   1.375803E-02   1.327392E-02   1.307750E-02   1.371107E-02   1.404439E-02   1.412309E-02   1.503311E-02   1.507610E-02   1.625793E-01
   1.625793E-01   1.000000E+00   1.360394E-02   1.280370E-02   1.228984E-02   1.265755E-02   1.271641E-02   1.215294E-02   1.216484E-02   1.194064E-02   1.168669E-02   1.126276E-02   1.075418E-02   1.068540E-02   1.041161E-02   1.178457E-02   1.148101E-02   1.058091E-02   1.021915E-02   9.992973E-03   1.039904E-02   1.039640E-02   1.056372E-02   1.128260E-02   1.121581E-02   1.139834E-02   1.131567E-02   1.060141E-02   1.131765E-02   1.085273E-02   1.135337E-02   1.145058E-02   1.173695E-02   1.197702E-02   1.304047E-02   1.271442E-02   1.259802E-02   1.436184E-02   1.397231E-02   1.582673E-02   1.561510E-02   1.625793E-01
   1.625793E-01   1.000000E+00   1.281098E-02   1.272963E-02   1.267209E-02   1.297036E-02   1.340619E-02   1.306163E-02   1.201736E-02   1.201472E-02   1.187517E-02   1.155971E-02   1.095391E-02   1.066887E-02   1.126144E-02   1.231695E-02   1.180374E-02   1.081437E-02   1.164965E-02   1.072839E-02   1.135403E-02   1.085140E-02   1.114835E-02   1.108618E-02   1.160799E-02   1.182689E-02   1.049560E-02   1.135006E-02   1.064176E-02   1.127797E-02   1.119597E-02   1.174753E-02   1.258612E-02   1.244261E-02   1.313438E-02   1.249882E-02   1.252594E-02   1.366676E-02   1.375935E-02   1.515414E-02   1.556285E-02   1.625793E-01
   1.625793E-01   1.000000E+00   1.284074E-02   1.273691E-02   1.288769E-02   1.337379E-02   1.340950E-02   1.296309E-02   1.278849E-02   1.187186E-02   1.167346E-02   1.132559E-02   1.174951E-02   1.137784E-02   1.211987E-02   1.234803E-02   1.241285E-02   1.228322E-02   1.168404E-02   1.153458E-02   1.125615E-02   1.172901E-02   1.143471E-02   1.168338E-02   1.147505E-02   1.162121E-02   1.127334E-02   1.159542E-02   1.129120E-02   1.119861E-02   1.171314E-02   1.235729E-02   1.198562E-02   1.218534E-02   1.312710E-02   1.191485E-02   1.198694E-02   1.269657E-02   1.364428E-02   1.420047E-02   1.565015E-02   1.625793E-01
   1.625793E-01   1.000000E+00   1.294060E-02   1.301533E-02   1.304774E-02   1.296640E-02   1.378382E-02   1.347233E-02   1.317604E-02   1.234539E-02   1.191287E-02   1.125350E-02   1.147638E-02   1.194527E-02   1.174687E-02   1.204977E-02   1.167214E-02   1.219659E-02   1.166354E-02   1.155045E-02   1.141090E-02   1.186591E-02   1.218534E-02   1.167677E-02   1.230637E-02   1.191551E-02   1.154516E-02   1.205704E-02   1.156831E-02   1.123300E-02   1.183351E-02   1.258480E-02   1.181896E-02   1.221047E-02   1.227000E-02   1.133485E-02   1.246906E-02   1.206762E-02   1.350539E-02   1.430298E-02   1.534989E-02   1.625793E-01
   1.625793E-01   1.000000E+00   1.387310E-02   1.375406E-02   1.377390E-02   1.442070E-02   1.422825E-02   1.348952E-02   1.373687E-02   1.290886E-02   1.185202E-02   1.249816E-02   1.153788E-02   1.236325E-02   1.194527E-02   1.210267E-02   1.199620E-02   1.199818E-02   1.203852E-02   1.184144E-02   1.124226E-02   1.057298E-02   1.135138E-02   1.144794E-02   1.152069E-02   1.138445E-02   1.123498E-02   1.100153E-02   1.135733E-02   1.104452E-02   1.190692E-02   1.200347E-02   1.157492E-02   1.170124E-02   1.205506E-02   1.141752E-02   1.190956E-02   1.335791E-02   1.330831E-02   1.424147E-02   1.478378E-02   1.625793E-01
   0.000000E+00   0.000000E+00   0.000000E+00   0.000000E+00   0.000000E+00   0.000000E+00   0.000000E+00   0.000000E+00   0.000000E+00   0.000000E+00   0.000000E+00   0.000000E+00   0.000000E+00   0.000000E+00   0.000000E+00   0.000000E+00   0.000000E+00   0.000000E+00   0.000000E+00   0.000000E+00   0.000000E+00   0.000000E+00   0.000000E+00   0.000000E+00   0.000000E+00   0.000000E+00   0.000000E+00   0.000000E+00   0.000000E+00   0.000000E+00   0.000000E+00   0.000000E+00   0.000000E+00   0.000000E+00   0.000000E+00   0.000000E+00   0.000000E+00   0.000000E+00   0.000000E+00   0.000000E+00   0.000000E+00   0.000000E+00
   0.000000E+00   0.000000E+00   0.000000E+00   0.000000E+00   0.000000E+00   0.000000E+00   0.000000E+00   0.000000E+00   0.000000E+00   0.000000E+00   0.000000E+00   0.000000E+00   0.000000E+00   0.000000E+00   0.000000E+00   0.000000E+00   0.000000E+00   0.000000E+00   0.000000E+00   0.000000E+00   0.000000E+00   0.000000E+00   0.000000E+00   0.000000E+00   0.000000E+00   0.000000E+00   0.000000E+00   0.000000E+00   0.000000E+00   0.000000E+00   0.000000E+00   0.000000E+00   0.000000E+00   0.000000E+00   0.000000E+00   0.000000E+00   0.000000E+00   0.000000E+00   0.000000E+00   0.000000E+00   0.000000E+00   0.000000E+00
   0.000000E+00   0.000000E+00   0.000000E+00   0.000000E+00   0.000000E+00   0.000000E+00   0.000000E+00   0.000000E+00   0.000000E+00   0.000000E+00   0.000000E+00   0.000000E+00   0.000000E+00   0.000000E+00   0.000000E+00   0.000000E+00   0.000000E+00   0.000000E+00   0.000000E+00   0.000000E+00   0.000000E+00   0.000000E+00   0.000000E+00   0.000000E+00   0.000000E+00   0.000000E+00   0.000000E+00   0.000000E+00   0.000000E+00   0.000000E+00   0.000000E+00   0.000000E+00   0.000000E+00   0.000000E+00   0.000000E+00   0.000000E+00   0.000000E+00   0.000000E+00   0.000000E+00   0.000000E+00   0.000000E+00   0.000000E+00
   0.000000E+00   0.000000E+00   0.000000E+00   0.000000E+00   0.000000E+00   0.000000E+00   0.000000E+00   0.000000E+00   0.000000E+00   0.000000E+00   0.000000E+00   0.000000E+00   0.000000E+00   0.000000E+00   0.000000E+00   0.000000E+00   0.000000E+00   0.000000E+00   0.000000E+00   0.000000E+00   0.000000E+00   0.000000E+00   0.000000E+00   0.000000E+00   0.000000E+00   0.000000E+00   0.000000E+00   0.000000E+00   0.000000E+00   0.000000E+00   0.000000E+00   0.000000E+00   0.000000E+00   0.000000E+00   0.000000E+00   0.000000E+00   0.000000E+00   0.000000E+00   0.000000E+00   0.000000E+00   0.000000E+00   0.000000E+00
   0.000000E+00   0.000000E+00   0.000000E+00   0.000000E+00   0.000000E+00   0.000000E+00   0.000000E+00   0.000000E+00   0.000000E+00   0.000000E+00   0.000000E+00   0.000000E+00   0.000000E+00   0.000000E+00   0.000000E+00   0.000000E+00   0.000000E+00   0.000000E+00   0.000000E+00   0.000000E+00   0.000000E+00   0.000000E+00   0.000000E+00   0.000000E+00   0.000000E+00   0.000000E+00   0.000000E+00   0.000000E+00   0.000000E+00   0.000000E+00   0.000000E+00   0.000000E+00   0.000000E+00   0.000000E+00   0.000000E+00   0.000000E+00   0.000000E+00   0.000000E+00   0.000000E+00   0.000000E+00   0.000000E+00   0.000000E+00
CONSTANT    1.000000E+00                           #vka2                          
INTERNAL               1  (42E15.6) -1 #hk layer 3                    
   0.000000E+00   0.000000E+00   0.000000E+00   0.000000E+00   0.000000E+00   0.000000E+00   0.000000E+00   0.000000E+00   0.000000E+00   0.000000E+00   0.000000E+00   0.000000E+00   0.000000E+00   0.000000E+00   0.000000E+00   0.000000E+00   0.000000E+00   0.000000E+00   0.000000E+00   0.000000E+00   0.000000E+00   0.000000E+00   0.000000E+00   0.000000E+00   0.000000E+00   0.000000E+00   0.000000E+00   0.000000E+00   0.000000E+00   0.000000E+00   0.000000E+00   0.000000E+00   0.000000E+00   0.000000E+00   0.000000E+00   0.000000E+00   0.000000E+00   0.000000E+00   0.000000E+00   0.000000E+00   0.000000E+00   0.000000E+00
   0.000000E+00   0.000000E+00   0.000000E+00   0.000000E+00   0.000000E+00   0.000000E+00   0.000000E+00   0.000000E+00   0.000000E+00   0.000000E+00   0.000000E+00   0.000000E+00   0.000000E+00   0.000000E+00   0.000000E+00   0.000000E+00   0.000000E+00   0.000000E+00   0.000000E+00   0.000000E+00   0.000000E+00   0.000000E+00   0.000000E+00   0.000000E+00   0.000000E+00   0.000000E+00   0.000000E+00   0.000000E+00   0.000000E+00   0.000000E+00   0.000000E+00   0.000000E+00   0.000000E+00   0.000000E+00   0.000000E+00   0.000000E+00   0.000000E+00   0.000000E+00   0.000000E+00   0.000000E+00   0.000000E+00   0.000000E+00
   0.000000E+00   0.000000E+00   0.000000E+00   0.000000E+00   0.000000E+00   0.000000E+00   0.000000E+00   0.000000E+00   0.000000E+00   0.000000E+00   0.000000E+00   0.000000E+00   0.000000E+00   0.000000E+00   0.000000E+00   0.000000E+00   0.000000E+00   0.000000E+00   0.000000E+00   0.000000E+00   0.000000E+00   0.000000E+00   0.000000E+00   0.000000E+00   0.000000E+00   0.000000E+00   0.000000E+00   0.000000E+00   0.000000E+00   0.000000E+00   0.000000E+00   0.000000E+00   0.000000E+00   0.000000E+00   0.000000E+00   0.000000E+00   0.000000E+00   0.000000E+00   0.000000E+00   0.000000E+00   0.000000E+00   0.000000E+00
   1.625793E-01   1.000000E+00   1.130906E-02   1.032166E-02   9.795230E-03   9.433473E-03   1.031042E-02   1.019270E-02   1.089836E-02   1.106502E-02   1.056835E-02   1.074096E-02   1.033423E-02   1.056636E-02   1.048171E-02   1.126408E-02   1.210334E-02   1.194726E-02   1.158418E-02   1.188840E-02   1.218667E-02   1.082958E-02   1.189766E-02   1.176472E-02   1.171975E-02   1.218270E-02   1.143471E-02   1.233679E-02   1.193006E-02   1.253189E-02   1.210664E-02   1.241417E-02   1.285000E-02   1.262051E-02   1.302063E-02   1.385459E-02   1.422692E-02   1.355830E-02   1.417997E-02   1.296573E-02   1.323821E-02   1.625793E-01
   1.625793E-01   1.000000E+00   1.188906E-02   1.081503E-02   1.046121E-02   9.845492E-03   9.858058E-03   9.859380E-03   1.033489E-02   1.044269E-02   1.104386E-02   1.039838E-02   1.012260E-02   1.013318E-02   1.061133E-02   1.127731E-02   1.164634E-02   1.179316E-02   1.196644E-02   1.239499E-02   1.178920E-02   1.145918E-02   1.144331E-02   1.185864E-02   1.124226E-02   1.228785E-02   1.209011E-02   1.151804E-02   1.266747E-02   1.274154E-02   1.227793E-02   1.267209E-02   1.306361E-02   1.271310E-02   1.329442E-02   1.334733E-02   1.336519E-02   1.333609E-02   1.318596E-02   1.337511E-02   1.372166E-02   1.625793E-01