# WEL package for  MODFLOW-2005, generated by Flopy.
       324         0 
       324         0 # stress period 1
         1         8         1     0.005353056
         1         9         1     0.005353056
         1        10         1     0.005353056
         1        11         1     0.005353056
         1        12         1     0.005353056
         1        13         1     0.005353056
         2         6         1     0.005353056
         2         7         1     0.005353056
         2         8         1     0.005353056
         2         9         1     0.005353056
         2        10         1     0.005353056
         2        11         1     0.005353056
         2        12         1     0.005353056
         2        13         1     0.005353056
         2        14         1     0.005353056
         2        15         1     0.005353056
         3         4         1     0.005353056
         3         5         1     0.005353056
         3         6         1     0.005353056
         3         7         1     0.005353056
         3         8         1     0.005353056
         3         9         1     0.005353056
         3        10         1     0.005353056
         3        11         1     0.005353056
         3        12         1     0.005353056
         3        13         1     0.005353056
         3        14         1     0.005353056
         3        15         1     0.005353056
         3        16         1     0.005353056
         3        17         1     0.005353056
         4         3         1     0.005353056
         4         4         1     0.005353056
         4         5         1     0.005353056
         4         6         1     0.005353056
         4         7         1     0.005353056
         4         8         1     0.005353056
         4         9         1     0.005353056
         4        10         1     0.005353056
         4        11         1     0.005353056
         4        12         1     0.005353056
         4        13         1     0.005353056
         4        14         1     0.005353056
         4        15         1     0.005353056
         4        16         1     0.005353056
         4        17         1     0.005353056
         4        18         1     0.005353056
         5         2         1     0.005353056
         5         3         1     0.005353056
         5         4         1     0.005353056
         5         5         1     0.005353056
         5         6         1     0.005353056
         5         7         1     0.005353056
         5         8         1     0.005353056
         5         9         1     0.005353056
         5        10         1     0.005353056
         5        11         1     0.005353056
         5        12         1     0.005353056
         5        13         1     0.005353056
         5        14         1     0.005353056
         5        15         1     0.005353056
         5        16         1     0.005353056
         5        17         1     0.005353056
         5        18         1     0.005353056
         5        19         1     0.005353056
         6         2         1     0.005353056
         6         3         1     0.005353056
         6         4         1     0.005353056
         6         5         1     0.005353056
         6         6         1     0.005353056
         6         7         1     0.005353056
         6         8         1     0.005353056
         6         9         1     0.005353056
         6        10         1     0.005353056
         6        11         1     0.005353056
         6        12         1     0.005353056
         6        13         1     0.005353056
         6        14         1     0.005353056
         6        15         1     0.005353056
         6        16         1     0.005353056
         6        17         1     0.005353056
         6        18         1     0.005353056
         6        19         1     0.005353056
         7         1         1     0.005353056
         7         2         1     0.005353056
         7         3         1     0.005353056
         7         4         1     0.005353056
         7         5         1     0.005353056
         7         6         1     0.005353056
         7         7         1     0.005353056
         7         8         1     0.005353056
         7         9         1     0.005353056
         7        10         1     0.005353056
         7        11         1     0.005353056
         7        12         1     0.005353056
         7        13         1     0.005353056
         7        14         1     0.005353056
         7        15         1     0.005353056
         7        16         1     0.005353056
         7        17         1     0.005353056
         7        18         1     0.005353056
         7        19         1     0.005353056
         7        20         1     0.005353056
         8         1         1     0.005353056
         8         2         1     0.005353056
         8         3         1     0.005353056
         8         4         1     0.005353056
         8         5         1     0.005353056
         8         6         1     0.005353056
         8         7         1     0.005353056
         8         8         1     0.005353056
         8         9         1     0.005353056
         8        10         1     0.005353056
         8        11         1     0.005353056
         8        12         1     0.005353056
         8        13         1     0.005353056
         8        14         1     0.005353056
         8        15         1     0.005353056
         8        16         1     0.005353056
         8        17         1     0.005353056
         8        18         1     0.005353056
         8        19         1     0.005353056
         8        20         1     0.005353056
         9         1         1     0.005353056
         9         2         1     0.005353056
         9         3         1     0.005353056
         9         4         1     0.005353056
         9         5         1     0.005353056
         9         6         1     0.005353056
         9         7         1     0.005353056
         9         8         1     0.005353056
         9         9         1     0.005353056
         9        10         1     0.005353056
         9        11         1     0.005353056
         9        12         1     0.005353056
         9        13         1     0.005353056
         9        14         1     0.005353056
         9        15         1     0.005353056
         9        16         1     0.005353056
         9        17         1     0.005353056
         9        18         1     0.005353056
         9        19         1     0.005353056
         9        20         1     0.005353056
        10         1         1     0.005353056
        10         2         1     0.005353056
        10         3         1     0.005353056
        10         4         1     0.005353056
        10         5         1     0.005353056
        10         6         1     0.005353056
        10         7         1     0.005353056
        10         8         1     0.005353056
        10         9         1     0.005353056
        10        10         1     0.005353056
        10        11         1     0.005353056
        10        12         1     0.005353056
        10        13         1     0.005353056
        10        14         1     0.005353056
        10        15         1     0.005353056
        10        16         1     0.005353056
        10        17         1     0.005353056
        10        18         1     0.005353056
        10        19         1     0.005353056
        10        20         1     0.005353056
        11         1         1     0.005353056
        11         2         1     0.005353056
        11         3         1     0.005353056
        11         4         1     0.005353056
        11         5         1     0.005353056
        11         6         1     0.005353056
        11         7         1     0.005353056
        11         8         1     0.005353056
        11         9         1     0.005353056
        11        10         1     0.005353056
        11        11         1     0.005353056
        11        12         1     0.005353056
        11        13         1     0.005353056
        11        14         1     0.005353056
        11        15         1     0.005353056
        11        16         1     0.005353056
        11        17         1     0.005353056
        11        18         1     0.005353056
        11        19         1     0.005353056
        11        20         1     0.005353056
        12         1         1     0.005353056
        12         2         1     0.005353056
        12         3         1     0.005353056
        12         4         1     0.005353056
        12         5         1     0.005353056
        12         6         1     0.005353056
        12         7         1     0.005353056
        12         8         1     0.005353056
        12         9         1     0.005353056
        12        10         1     0.005353056
        12        11         1     0.005353056
        12        12         1     0.005353056
        12        13         1     0.005353056
        12        14         1     0.005353056
        12        15         1     0.005353056
        12        16         1     0.005353056
        12        17         1     0.005353056
        12        18         1     0.005353056
        12        19         1     0.005353056
        12        20         1     0.005353056
        13         1         1     0.005353056
        13         2         1     0.005353056
        13         3         1     0.005353056
        13         4         1     0.005353056
        13         5         1     0.005353056
        13         6         1     0.005353056
        13         7         1     0.005353056
        13         8         1     0.005353056
        13         9         1     0.005353056
        13        10         1     0.005353056
        13        11         1     0.005353056
        13        12         1     0.005353056
        13        13         1     0.005353056
        13        14         1     0.005353056
        13        15         1     0.005353056
        13        16         1     0.005353056
        13        17         1     0.005353056
        13        18         1     0.005353056
        13        19         1     0.005353056
        13        20         1     0.005353056
        14         1         1     0.005353056
        14         2         1     0.005353056
        14         3         1     0.005353056
        14         4         1     0.005353056
        14         5         1     0.005353056
        14         6         1     0.005353056
        14         7         1     0.005353056
        14         8         1     0.005353056
        14         9         1     0.005353056
        14        10         1     0.005353056
        14        11         1     0.005353056
        14        12         1     0.005353056
        14        13         1     0.005353056
        14        14         1     0.005353056
        14        15         1     0.005353056
        14        16         1     0.005353056
        14        17         1     0.005353056
        14        18         1     0.005353056
        14        19         1     0.005353056
        14        20         1     0.005353056
        15         2         1     0.005353056
        15         3         1     0.005353056
        15         4         1     0.005353056
        15         5         1     0.005353056
        15         6         1     0.005353056
        15         7         1     0.005353056
        15         8         1     0.005353056
        15         9         1     0.005353056
        15        10         1     0.005353056
        15        11         1     0.005353056
        15        12         1     0.005353056
        15        13         1     0.005353056
        15        14         1     0.005353056
        15        15         1     0.005353056
        15        16         1     0.005353056
        15        17         1     0.005353056
        15        18         1     0.005353056
        15        19         1     0.005353056
        16         2         1     0.005353056
        16         3         1     0.005353056
        16         4         1     0.005353056
        16         5         1     0.005353056
        16         6         1     0.005353056
        16         7         1     0.005353056
        16         8         1     0.005353056
        16         9         1     0.005353056
        16        10         1     0.005353056
        16        11         1     0.005353056
        16        12         1     0.005353056
        16        13         1     0.005353056
        16        14         1     0.005353056
        16        15         1     0.005353056
        16        16         1     0.005353056
        16        17         1     0.005353056
        16        18         1     0.005353056
        16        19         1     0.005353056
        17         3         1     0.005353056
        17         4         1     0.005353056
        17         5         1     0.005353056
        17         6         1     0.005353056
        17         7         1     0.005353056
        17         8         1     0.005353056
        17         9         1     0.005353056
        17        10         1     0.005353056
        17        11         1     0.005353056
        17        12         1     0.005353056
        17        13         1     0.005353056
        17        14         1     0.005353056
        17        15         1     0.005353056
        17        16         1     0.005353056
        17        17         1     0.005353056
        17        18         1     0.005353056
        18         4         1     0.005353056
        18         5         1     0.005353056
        18         6         1     0.005353056
        18         7         1     0.005353056
        18         8         1     0.005353056
        18         9         1     0.005353056
        18        10         1     0.005353056
        18        11         1     0.005353056
        18        12         1     0.005353056
        18        13         1     0.005353056
        18        14         1     0.005353056
        18        15         1     0.005353056
        18        16         1     0.005353056
        18        17         1     0.005353056
        19         6         1     0.005353056
        19         7         1     0.005353056
        19         8         1     0.005353056
        19         9         1     0.005353056
        19        10         1     0.005353056
        19        11         1     0.005353056
        19        12         1     0.005353056
        19        13         1     0.005353056
        19        14         1     0.005353056
        19        15         1     0.005353056
        20         8         1     0.005353056
        20         9         1     0.005353056
        20        10         1     0.005353056
        20        11         1     0.005353056
        20        12         1     0.005353056
        20        13         1     0.005353056
        -1         0 # stress period 2
