# Name file for MODFLOW-2005, generated by Flopy version 3.3.0.
#xll:0.0; yll:0.0; rotation:0.0; units:centimeters; lenuni:3; start_datetime:1-1-1970
LIST               2  td1_mf.list
DIS               11  td1_mf.dis
BAS6              13  td1_mf.bas
LPF               15  td1_mf.lpf
WEL               20  td1_mf.wel
PCG               27  td1_mf.pcg
LMT6              30  td1_mf.lmt6
OC                14  td1_mf.oc
DATA(BINARY)      51  td1_mf.hds REPLACE
