# DIS package for  MODFLOW-2005, generated by Flopy.
        20        20        42         2         2         3
  0  0  0  0  0  0  0  0  0  0  0  0  0  0  0  0  0  0  0  0
CONSTANT    2.329100E-01                           #delr                          
CONSTANT    2.388000E-01                           #delc                          
CONSTANT    0.000000E+00                           #model_top                     
CONSTANT   -2.329100E-01                           #botm layer 1                  
CONSTANT   -4.658200E-01                           #botm layer 2                  
CONSTANT   -6.987300E-01                           #botm layer 3                  
CONSTANT   -9.316400E-01                           #botm layer 4                  
CONSTANT   -1.164550E+00                           #botm layer 5                  
CONSTANT   -1.397460E+00                           #botm layer 6                  
CONSTANT   -1.630370E+00                           #botm layer 7                  
CONSTANT   -1.863280E+00                           #botm layer 8                  
CONSTANT   -2.096190E+00                           #botm layer 9                  
CONSTANT   -2.329100E+00                           #botm layer 10                 
CONSTANT   -2.562010E+00                           #botm layer 11                 
CONSTANT   -2.794920E+00                           #botm layer 12                 
CONSTANT   -3.027830E+00                           #botm layer 13                 
CONSTANT   -3.260740E+00                           #botm layer 14                 
CONSTANT   -3.493650E+00                           #botm layer 15                 
CONSTANT   -3.726560E+00                           #botm layer 16                 
CONSTANT   -3.959470E+00                           #botm layer 17                 
CONSTANT   -4.192380E+00                           #botm layer 18                 
CONSTANT   -4.425290E+00                           #botm layer 19                 
CONSTANT   -4.658200E+00                           #botm layer 20                 
      2.000000             1  1.000000  SS 
     80.000000             1  1.000000  SS 
