# DIS package for  MODFLOW-2005, generated by Flopy.
        20        20        42         2         2         3
  0  0  0  0  0  0  0  0  0  0  0  0  0  0  0  0  0  0  0  0
CONSTANT    2.500000E-01                           #delr                          
CONSTANT    2.500000E-01                           #delc                          
CONSTANT    0.000000E+00                           #model_top                     
CONSTANT   -2.500000E-01                           #botm layer 1                  
CONSTANT   -5.000000E-01                           #botm layer 2                  
CONSTANT   -7.500000E-01                           #botm layer 3                  
CONSTANT   -1.000000E+00                           #botm layer 4                  
CONSTANT   -1.250000E+00                           #botm layer 5                  
CONSTANT   -1.500000E+00                           #botm layer 6                  
CONSTANT   -1.750000E+00                           #botm layer 7                  
CONSTANT   -2.000000E+00                           #botm layer 8                  
CONSTANT   -2.250000E+00                           #botm layer 9                  
CONSTANT   -2.500000E+00                           #botm layer 10                 
CONSTANT   -2.750000E+00                           #botm layer 11                 
CONSTANT   -3.000000E+00                           #botm layer 12                 
CONSTANT   -3.250000E+00                           #botm layer 13                 
CONSTANT   -3.500000E+00                           #botm layer 14                 
CONSTANT   -3.750000E+00                           #botm layer 15                 
CONSTANT   -4.000000E+00                           #botm layer 16                 
CONSTANT   -4.250000E+00                           #botm layer 17                 
CONSTANT   -4.500000E+00                           #botm layer 18                 
CONSTANT   -4.750000E+00                           #botm layer 19                 
CONSTANT   -5.000000E+00                           #botm layer 20                 
      1.000000             1  1.000000  SS 
     20.000000             1  1.000000  SS 
