# LPF package for  MODFLOW-2005, generated by Flopy.
         0    -1E+30         0  
         0         0         0         0         0         0         0         0         0         0         0         0         0         0         0         0         0         0         0         0
         0         0         0         0         0         0         0         0         0         0         0         0         0         0         0         0         0         0         0         0
   1.000000E+00   1.000000E+00   1.000000E+00   1.000000E+00   1.000000E+00   1.000000E+00   1.000000E+00   1.000000E+00   1.000000E+00   1.000000E+00   1.000000E+00   1.000000E+00   1.000000E+00   1.000000E+00   1.000000E+00   1.000000E+00   1.000000E+00   1.000000E+00   1.000000E+00   1.000000E+00
         0         0         0         0         0         0         0         0         0         0         0         0         0         0         0         0         0         0         0         0
         0         0         0         0         0         0         0         0         0         0         0         0         0         0         0         0         0         0         0         0
INTERNAL               1  (42E15.6) -1 #hk layer 1                    
   1.386451E-01   1.257554E-02   1.248493E-02   1.260530E-02   1.272302E-02   1.248626E-02   1.232753E-02   1.213971E-02   1.211855E-02   1.238044E-02   1.232356E-02   1.240028E-02   1.272566E-02   1.306361E-02   1.299682E-02   1.310396E-02   1.325144E-02   1.314628E-02   1.314099E-02   1.349151E-02   1.317075E-02   1.319787E-02   1.314430E-02   1.311784E-02   1.338503E-02   1.341876E-02   1.328054E-02   1.298822E-02   1.317538E-02   1.319258E-02   1.309337E-02   1.293928E-02   1.287711E-02   1.298293E-02   1.302724E-02   1.312842E-02   1.266019E-02   1.283545E-02   1.286587E-02   1.234605E-02   1.224486E-02   1.386451E-01
   1.386451E-01   1.261059E-02   1.272170E-02   1.245782E-02   1.250940E-02   1.245583E-02   1.229909E-02   1.196776E-02   1.207556E-02   1.273691E-02   1.245120E-02   1.232092E-02   1.273492E-02   1.296970E-02   1.295780E-02   1.290423E-02   1.313768E-02   1.350473E-02   1.340619E-02   1.335924E-02   1.328252E-02   1.320580E-02   1.325937E-02   1.318266E-02   1.301533E-02   1.339098E-02   1.314827E-02   1.284801E-02   1.303914E-02   1.288769E-02   1.272699E-02   1.316943E-02   1.281362E-02   1.297433E-02   1.302988E-02   1.295383E-02   1.302459E-02   1.282751E-02   1.250014E-02   1.245848E-02   1.255570E-02   1.386451E-01
   1.386451E-01   1.232224E-02   1.236325E-02   1.243070E-02   1.256496E-02   1.252528E-02   1.236391E-02   1.236920E-02   1.243533E-02   1.236721E-02   1.230108E-02   1.229248E-02   1.231563E-02   1.272831E-02   1.314033E-02   1.310329E-02   1.325210E-02   1.332881E-02   1.347166E-02   1.334403E-02   1.322432E-02   1.322631E-02   1.313438E-02   1.334799E-02   1.350209E-02   1.345447E-02   1.322697E-02   1.292341E-02   1.290886E-02   1.293663E-02   1.286852E-02   1.297301E-02   1.292804E-02   1.294986E-02   1.319522E-02   1.301864E-02   1.299086E-02   1.302063E-02   1.249089E-02   1.266218E-02   1.268334E-02   1.386451E-01
   1.386451E-01   1.234539E-02   1.243401E-02   1.270781E-02   1.254842E-02   1.277791E-02   1.278386E-02   1.253586E-02   1.236391E-02   1.245650E-02   1.247171E-02   1.228587E-02   1.235729E-02   1.260001E-02   1.289828E-02   1.305502E-02   1.325077E-02   1.327128E-02   1.304311E-02   1.307618E-02   1.332815E-02   1.321374E-02   1.311057E-02   1.322498E-02   1.350143E-02   1.343463E-02   1.327789E-02   1.302195E-02   1.309470E-02   1.298756E-02   1.302129E-02   1.288769E-02   1.300938E-02   1.286190E-02   1.244790E-02   1.273757E-02   1.287777E-02   1.278717E-02   1.270715E-02   1.269061E-02   1.261191E-02   1.386451E-01
   1.386451E-01   1.247237E-02   1.267077E-02   1.303451E-02   1.279511E-02   1.295978E-02   1.292804E-02   1.250808E-02   1.228455E-02   1.241417E-02   1.249485E-02   1.255041E-02   1.255702E-02   1.257422E-02   1.257091E-02   1.319985E-02   1.290092E-02   1.289563E-02   1.301996E-02   1.276931E-02   1.319919E-02   1.323424E-02   1.325871E-02   1.298954E-02   1.322168E-02   1.333344E-02   1.340950E-02   1.312380E-02   1.289232E-02   1.288373E-02   1.270582E-02   1.276270E-02   1.269127E-02   1.257355E-02   1.252065E-02   1.244062E-02   1.281825E-02   1.241549E-02   1.247038E-02   1.256099E-02   1.271971E-02   1.386451E-01
   1.386451E-01   1.270582E-02   1.274088E-02   1.291812E-02   1.300277E-02   1.310197E-02   1.295846E-02   1.285397E-02   1.269194E-02   1.248427E-02   1.227330E-02   1.243930E-02   1.262316E-02   1.269855E-02   1.269458E-02   1.307089E-02   1.294192E-02   1.309800E-02   1.290291E-02   1.270781E-02   1.290555E-02   1.314628E-02   1.311123E-02   1.309205E-02   1.320382E-02   1.321705E-02   1.312313E-02   1.331493E-02   1.270384E-02   1.261985E-02   1.272500E-02   1.248824E-02   1.290224E-02   1.274617E-02   1.255173E-02   1.247700E-02   1.263770E-02   1.253189E-02   1.224949E-02   1.245583E-02   1.289100E-02   1.386451E-01
   1.386451E-01   1.279577E-02   1.273757E-02   1.295846E-02   1.298690E-02   1.316083E-02   1.296441E-02   1.290820E-02   1.262911E-02   1.248493E-02   1.253387E-02   1.259406E-02   1.235994E-02   1.277328E-02   1.300475E-02   1.290158E-02   1.283875E-02   1.291547E-02   1.270847E-02   1.278056E-02   1.306097E-02   1.338569E-02   1.334601E-02   1.340288E-02   1.316678E-02   1.318795E-02   1.312842E-02   1.289563E-02   1.257025E-02   1.246840E-02   1.263837E-02   1.251866E-02   1.261919E-02   1.252395E-02   1.249089E-02   1.229976E-02   1.244261E-02   1.229645E-02   1.228058E-02   1.248097E-02   1.282487E-02   1.386451E-01
   1.386451E-01   1.287050E-02   1.274088E-02   1.274881E-02   1.306494E-02   1.299285E-02   1.288439E-02   1.277725E-02   1.268135E-02   1.242938E-02   1.249618E-02   1.258083E-02   1.250279E-02   1.282619E-02   1.300343E-02   1.276138E-02   1.290291E-02   1.278717E-02   1.244525E-02   1.283479E-02   1.297499E-02   1.303518E-02   1.345910E-02   1.327987E-02   1.311983E-02   1.307816E-02   1.303848E-02   1.275542E-02   1.262183E-02   1.247567E-02   1.231960E-02   1.244062E-02   1.226007E-02   1.237118E-02   1.240557E-02   1.227992E-02   1.198562E-02   1.203455E-02   1.219923E-02   1.214831E-02   1.222238E-02   1.386451E-01
   1.386451E-01   1.317207E-02   1.316017E-02   1.291812E-02   1.300475E-02   1.291812E-02   1.272765E-02   1.274881E-02   1.229579E-02   1.231298E-02   1.253586E-02   1.244591E-02   1.242806E-02   1.270186E-02   1.292275E-02   1.276799E-02   1.300806E-02   1.289431E-02   1.270318E-02   1.276402E-02   1.290291E-02   1.302856E-02   1.316414E-02   1.335527E-02   1.297169E-02   1.301004E-02   1.286918E-02   1.246509E-02   1.240557E-02   1.210201E-02   1.218667E-02   1.224288E-02   1.217873E-02   1.233348E-02   1.224090E-02   1.211722E-02   1.205440E-02   1.200810E-02   1.217476E-02   1.195387E-02   1.194924E-02   1.386451E-01
   1.386451E-01   1.301798E-02   1.302790E-02   1.306163E-02   1.298954E-02   1.278981E-02   1.260794E-02   1.241880E-02   1.234208E-02   1.251073E-02   1.237250E-02   1.243136E-02   1.247964E-02   1.283280E-02   1.301071E-02   1.280370E-02   1.287050E-02   1.264763E-02   1.261059E-02   1.265821E-02   1.266548E-02   1.306361E-02   1.316678E-02   1.334403E-02   1.306824E-02   1.290026E-02   1.275873E-02   1.256628E-02   1.238639E-02   1.222039E-02   1.216550E-02   1.202993E-02   1.229777E-02   1.209540E-02   1.197966E-02   1.208283E-02   1.197305E-02   1.195189E-02   1.205903E-02   1.180573E-02   1.176274E-02   1.386451E-01
   1.386451E-01   1.289365E-02   1.270318E-02   1.274484E-02   1.273558E-02   1.267474E-02   1.273360E-02   1.250610E-02   1.235663E-02   1.240227E-02   1.232753E-02   1.235068E-02   1.273757E-02   1.293796E-02   1.298227E-02   1.280899E-02   1.267342E-02   1.288571E-02   1.245914E-02   1.227330E-02   1.255371E-02   1.301401E-02   1.316943E-02   1.312909E-02   1.292539E-02   1.270318E-02   1.257885E-02   1.260199E-02   1.233216E-02   1.205770E-02   1.216021E-02   1.213839E-02   1.213640E-02   1.214566E-02   1.196511E-02   1.187980E-02   1.184739E-02   1.192080E-02   1.183747E-02   1.163179E-02   1.157955E-02   1.386451E-01
   1.386451E-01   1.242078E-02   1.252329E-02   1.274815E-02   1.295251E-02   1.265622E-02   1.267011E-02   1.268069E-02   1.240425E-02   1.212648E-02   1.232489E-02   1.210796E-02   1.281098E-02   1.308412E-02   1.285727E-02   1.280966E-02   1.272633E-02   1.273955E-02   1.276601E-02   1.237978E-02   1.266813E-02   1.285661E-02   1.287314E-02   1.294722E-02   1.285330E-02   1.255438E-02   1.243203E-02   1.238507E-02   1.216418E-02   1.217542E-02   1.196908E-02   1.203323E-02   1.182755E-02   1.193601E-02   1.219659E-02   1.194395E-02   1.191485E-02   1.182557E-02   1.173033E-02   1.181234E-02   1.174687E-02   1.386451E-01
   1.386451E-01   1.241218E-02   1.249221E-02   1.291349E-02   1.293002E-02   1.275476E-02   1.284603E-02   1.279378E-02   1.271111E-02   1.249287E-02   1.212847E-02   1.209672E-02   1.272170E-02   1.286455E-02   1.277725E-02   1.249155E-02   1.262580E-02   1.260662E-02   1.262316E-02   1.266548E-02   1.257289E-02   1.276072E-02   1.291415E-02   1.237250E-02   1.254975E-02   1.247237E-02   1.227396E-02   1.234605E-02   1.225148E-02   1.233547E-02   1.219196E-02   1.176274E-02   1.181036E-02   1.179978E-02   1.218865E-02   1.213905E-02   1.199752E-02   1.220122E-02   1.203059E-02   1.184144E-02   1.183747E-02   1.386451E-01
   1.386451E-01   1.239301E-02   1.240359E-02   1.267871E-02   1.272897E-02   1.295647E-02   1.270186E-02   1.250544E-02   1.257157E-02   1.229513E-02   1.232290E-02   1.230968E-02   1.255702E-02   1.257951E-02   1.279841E-02   1.272103E-02   1.249485E-02   1.243666E-02   1.249353E-02   1.228851E-02   1.242872E-02   1.245451E-02   1.238044E-02   1.215161E-02   1.245385E-02   1.222767E-02   1.212979E-02   1.213839E-02   1.230372E-02   1.205373E-02   1.214103E-02   1.204844E-02   1.183086E-02   1.202067E-02   1.239102E-02   1.221841E-02   1.228917E-02   1.210400E-02   1.189633E-02   1.199355E-02   1.173430E-02   1.386451E-01
   1.386451E-01   1.244393E-02   1.251536E-02   1.273889E-02   1.281825E-02   1.263572E-02   1.249089E-02   1.235663E-02   1.247105E-02   1.215360E-02   1.227462E-02   1.247501E-02   1.233018E-02   1.260530E-02   1.247501E-02   1.232489E-02   1.223891E-02   1.244724E-02   1.222039E-02   1.205506E-02   1.231232E-02   1.227132E-02   1.216484E-02   1.235994E-02   1.251800E-02   1.197966E-02   1.214500E-02   1.237449E-02   1.223494E-02   1.235266E-02   1.220915E-02   1.195387E-02   1.205704E-02   1.214632E-02   1.210929E-02   1.207754E-02   1.228917E-02   1.209275E-02   1.190162E-02   1.188244E-02   1.204117E-02   1.386451E-01
   1.386451E-01   1.246377E-02   1.278915E-02   1.288571E-02   1.285992E-02   1.242211E-02   1.221775E-02   1.255173E-02   1.273955E-02   1.253850E-02   1.237978E-02   1.264961E-02   1.254115E-02   1.236589E-02   1.225743E-02   1.205572E-02   1.215757E-02   1.213177E-02   1.193932E-02   1.189964E-02   1.230505E-02   1.237978E-02   1.224553E-02   1.257885E-02   1.241285E-02   1.232753E-02   1.235531E-02   1.235663E-02   1.249551E-02   1.235994E-02   1.262183E-02   1.241549E-02   1.238242E-02   1.205506E-02   1.203852E-02   1.215426E-02   1.198099E-02   1.200678E-02   1.221973E-02   1.189766E-02   1.215889E-02   1.386451E-01
   1.386451E-01   1.275542E-02   1.284801E-02   1.310528E-02   1.303782E-02   1.261324E-02   1.233878E-02   1.257289E-02   1.270649E-02   1.268202E-02   1.237515E-02   1.245650E-02   1.247369E-02   1.231166E-02   1.236523E-02   1.211524E-02   1.214831E-02   1.207159E-02   1.195718E-02   1.185930E-02   1.198429E-02   1.218667E-02   1.220254E-02   1.228058E-02   1.243996E-02   1.254115E-02   1.247700E-02   1.248097E-02   1.286984E-02   1.273096E-02   1.265159E-02   1.268202E-02   1.261522E-02   1.224288E-02   1.206432E-02   1.208879E-02   1.191353E-02   1.204778E-02   1.209011E-02   1.200876E-02   1.219725E-02   1.386451E-01
   1.386451E-01   1.324416E-02   1.314033E-02   1.316943E-02   1.306957E-02   1.253189E-02   1.274484E-02   1.266416E-02   1.247105E-02   1.236920E-02   1.248229E-02   1.245385E-02   1.244591E-02   1.223825E-02   1.230637E-02   1.220188E-02   1.212384E-02   1.209077E-02   1.192940E-02   1.194792E-02   1.219129E-02   1.210400E-02   1.210267E-02   1.206961E-02   1.218137E-02   1.224619E-02   1.255636E-02   1.260530E-02   1.288373E-02   1.289629E-02   1.287314E-02   1.267209E-02   1.238507E-02   1.223693E-02   1.199554E-02   1.203852E-02   1.199157E-02   1.214302E-02   1.216616E-02   1.222502E-02   1.229711E-02   1.386451E-01
   1.386451E-01   1.297565E-02   1.327326E-02   1.299219E-02   1.299682E-02   1.281230E-02   1.266218E-02   1.274683E-02   1.240293E-02   1.241748E-02   1.254578E-02   1.264498E-02   1.243996E-02   1.256694E-02   1.244922E-02   1.237449E-02   1.235002E-02   1.210863E-02   1.207159E-02   1.223296E-02   1.243269E-02   1.227992E-02   1.184276E-02   1.215294E-02   1.236589E-02   1.249684E-02   1.252263E-02   1.265953E-02   1.290621E-02   1.289497E-02   1.258943E-02   1.255371E-02   1.247898E-02   1.231827E-02   1.230637E-02   1.200281E-02   1.214765E-02   1.207159E-02   1.213640E-02   1.230372E-02   1.241218E-02   1.386451E-01
   1.386451E-01   1.311784E-02   1.286785E-02   1.292671E-02   1.321242E-02   1.300012E-02   1.287381E-02   1.268003E-02   1.238639E-02   1.236325E-02   1.254512E-02   1.276138E-02   1.257223E-02   1.260927E-02   1.273823E-02   1.250676E-02   1.237713E-02   1.237184E-02   1.230901E-02   1.253718E-02   1.243136E-02   1.237846E-02   1.245319E-02   1.217278E-02   1.231960E-02   1.239697E-02   1.236721E-02   1.276865E-02   1.264101E-02   1.252528E-02   1.250345E-02   1.253255E-02   1.248493E-02   1.256165E-02   1.267408E-02   1.222899E-02   1.239631E-02   1.257620E-02   1.258943E-02   1.245716E-02   1.264696E-02   1.386451E-01
CONSTANT    1.000000E+00                           #vka1                          
INTERNAL               1  (42E15.6) -1 #hk layer 2                    
   1.386451E-01   1.255173E-02   1.257025E-02   1.257091E-02   1.275873E-02   1.264498E-02   1.226272E-02   1.204911E-02   1.225743E-02   1.244393E-02   1.252858E-02   1.251073E-02   1.266813E-02   1.283611E-02   1.304047E-02   1.304443E-02   1.318464E-02   1.317538E-02   1.320646E-02   1.348092E-02   1.327789E-02   1.329773E-02   1.293531E-02   1.300608E-02   1.325937E-02   1.345910E-02   1.341347E-02   1.302658E-02   1.289232E-02   1.318927E-02   1.312710E-02   1.317141E-02   1.279312E-02   1.310726E-02   1.301600E-02   1.303385E-02   1.282024E-02   1.273492E-02   1.231960E-02   1.257620E-02   1.253321E-02   1.386451E-01
   1.386451E-01   1.239036E-02   1.244393E-02   1.244988E-02   1.259736E-02   1.234340E-02   1.220386E-02   1.208350E-02   1.220254E-02   1.254446E-02   1.238176E-02   1.244393E-02   1.279444E-02   1.292671E-02   1.297102E-02   1.292341E-02   1.328252E-02   1.323093E-02   1.341876E-02   1.333014E-02   1.320250E-02   1.303584E-02   1.314231E-02   1.300608E-02   1.279974E-02   1.335659E-02   1.341743E-02   1.323490E-02   1.296243E-02   1.293002E-02   1.296706E-02   1.306890E-02   1.291812E-02   1.288637E-02   1.312842E-02   1.316083E-02   1.294722E-02   1.261257E-02   1.238904E-02   1.241285E-02   1.211392E-02   1.386451E-01
   1.386451E-01   1.228587E-02   1.219659E-02   1.237250E-02   1.219725E-02   1.249684E-02   1.244393E-02   1.226470E-02   1.241615E-02   1.259802E-02   1.220188E-02   1.232224E-02   1.251668E-02   1.273029E-02   1.291216E-02   1.294986E-02   1.323821E-02   1.326797E-02   1.323292E-02   1.326202E-02   1.332022E-02   1.327855E-02   1.314099E-02   1.324548E-02   1.333344E-02   1.338437E-02   1.333080E-02   1.305039E-02   1.315356E-02   1.290555E-02   1.299483E-02   1.310329E-02   1.297764E-02   1.291812E-02   1.287381E-02   1.308213E-02   1.308742E-02   1.276865E-02   1.264101E-02   1.272566E-02   1.256826E-02   1.386451E-01
   1.386451E-01   1.230835E-02   1.215294E-02   1.251866E-02   1.254644E-02   1.275344E-02   1.256363E-02   1.263374E-02   1.270053E-02   1.257686E-02   1.241615E-02   1.243070E-02   1.245120E-02   1.245716E-02   1.291481E-02   1.293399E-02   1.294523E-02   1.312909E-02   1.285926E-02   1.297764E-02   1.315422E-02   1.309337E-02   1.315554E-02   1.338238E-02   1.351664E-02   1.329046E-02   1.347828E-02   1.322432E-02   1.299549E-02   1.300277E-02   1.325739E-02   1.296044E-02   1.284140E-02   1.291812E-02   1.262316E-02   1.253321E-02   1.286455E-02   1.281693E-02   1.269392E-02   1.280833E-02   1.252528E-02   1.386451E-01
   1.386451E-01   1.243732E-02   1.255900E-02   1.261654E-02   1.289431E-02   1.311454E-02   1.284074E-02   1.273228E-02   1.261125E-02   1.233018E-02   1.243666E-02   1.240425E-02   1.240425E-02   1.255636E-02   1.233745E-02   1.306758E-02   1.306361E-02   1.298954E-02   1.282685E-02   1.270649E-02   1.314827E-02   1.316083E-02   1.308412E-02   1.324482E-02   1.316943E-02   1.333278E-02   1.340818E-02   1.329376E-02   1.280370E-02   1.293663E-02   1.270847E-02   1.278783E-02   1.289828E-02   1.262382E-02   1.235134E-02   1.263969E-02   1.296970E-02   1.247832E-02   1.263770E-02   1.281891E-02   1.253718E-02   1.386451E-01
   1.386451E-01   1.273228E-02   1.281230E-02   1.319919E-02   1.300541E-02   1.295581E-02   1.299549E-02   1.284272E-02   1.257355E-02   1.231298E-02   1.241020E-02   1.252131E-02   1.243996E-02   1.256231E-02   1.255041E-02   1.283280E-02   1.302327E-02   1.310925E-02   1.284338E-02   1.292605E-02   1.289365E-02   1.299814E-02   1.322697E-02   1.306295E-02   1.318530E-02   1.332485E-02   1.325607E-02   1.311057E-02   1.278783E-02   1.291944E-02   1.273757E-02   1.254975E-02   1.298094E-02   1.277064E-02   1.258414E-02   1.254975E-02   1.256694E-02   1.252197E-02   1.253652E-02   1.255107E-02   1.277130E-02   1.386451E-01
   1.386451E-01   1.287116E-02   1.280172E-02   1.308412E-02   1.299153E-02   1.282487E-02   1.262911E-02   1.288108E-02   1.254049E-02   1.244062E-02   1.242144E-02   1.238639E-02   1.274352E-02   1.270979E-02   1.247105E-02   1.277130E-02   1.312644E-02   1.311520E-02   1.271574E-02   1.289563E-02   1.312909E-02   1.308279E-02   1.323821E-02   1.318133E-02   1.303980E-02   1.323160E-02   1.325077E-02   1.298491E-02   1.285992E-02   1.261390E-02   1.272103E-02   1.271905E-02   1.251271E-02   1.243666E-02   1.258546E-02   1.252990E-02   1.231100E-02   1.236721E-02   1.237449E-02   1.259935E-02   1.266879E-02   1.386451E-01
   1.386451E-01   1.266284E-02   1.267606E-02   1.281032E-02   1.290357E-02   1.288902E-02   1.270384E-02   1.258414E-02   1.249155E-02   1.235597E-02   1.237052E-02   1.254842E-02   1.257289E-02   1.298822E-02   1.286124E-02   1.283677E-02   1.294126E-02   1.271839E-02   1.258810E-02   1.269194E-02   1.280304E-02   1.325144E-02   1.333940E-02   1.316149E-02   1.318927E-02   1.305568E-02   1.310792E-02   1.273558E-02   1.257554E-02   1.257091E-02   1.248097E-02   1.240491E-02   1.233348E-02   1.234142E-02   1.248427E-02   1.227859E-02   1.198429E-02   1.211524E-02   1.214566E-02   1.212714E-02   1.252924E-02   1.386451E-01
   1.386451E-01   1.292473E-02   1.307684E-02   1.288240E-02   1.300674E-02   1.291216E-02   1.273558E-02   1.258083E-02   1.238044E-02   1.223891E-02   1.209077E-02   1.259736E-02   1.251602E-02   1.273757E-02   1.298557E-02   1.297698E-02   1.287050E-02   1.277990E-02   1.277130E-02   1.297367E-02   1.289894E-02   1.305766E-02   1.331294E-02   1.352722E-02   1.297962E-02   1.273492E-02   1.259736E-02   1.272368E-02   1.252990E-02   1.206961E-02   1.207754E-02   1.213574E-02   1.216881E-02   1.227992E-02   1.221643E-02   1.223362E-02   1.214500E-02   1.215889E-02   1.233348E-02   1.198231E-02   1.194329E-02   1.386451E-01
   1.386451E-01   1.304311E-02   1.319324E-02   1.304047E-02   1.286719E-02   1.265093E-02   1.267606E-02   1.255636E-02   1.221841E-02   1.240954E-02   1.233084E-02   1.214963E-02   1.245517E-02   1.296177E-02   1.304642E-02   1.295647E-02   1.292539E-02   1.271773E-02   1.262183E-02   1.278981E-02   1.305105E-02   1.320514E-02   1.323821E-02   1.345844E-02   1.304840E-02   1.279577E-02   1.243798E-02   1.236986E-02   1.256099E-02   1.225478E-02   1.198429E-02   1.190427E-02   1.208812E-02   1.230769E-02   1.197239E-02   1.216220E-02   1.225478E-02   1.215690E-02   1.199620E-02   1.191221E-02   1.166155E-02   1.386451E-01
   1.386451E-01   1.270649E-02   1.278849E-02   1.299682E-02   1.276138E-02   1.234473E-02   1.256165E-02   1.245451E-02   1.235333E-02   1.220188E-02   1.204381E-02   1.215029E-02   1.280304E-02   1.302790E-02   1.318133E-02   1.319588E-02   1.299814E-02   1.271971E-02   1.264630E-02   1.255239E-02   1.265358E-02   1.306890E-02   1.316612E-02   1.309602E-02   1.304047E-02   1.261853E-02   1.234803E-02   1.243467E-02   1.222899E-02   1.217873E-02   1.213640E-02   1.206498E-02   1.201604E-02   1.231960E-02   1.232687E-02   1.208416E-02   1.175877E-02   1.214500E-02   1.187517E-02   1.163312E-02   1.142347E-02   1.386451E-01
   1.386451E-01   1.248030E-02   1.272633E-02   1.262580E-02   1.268664E-02   1.265093E-02   1.235994E-02   1.234936E-02   1.234407E-02   1.228124E-02   1.208085E-02   1.230439E-02   1.288108E-02   1.312181E-02   1.301071E-02   1.293796E-02   1.276468E-02   1.288769E-02   1.289828E-02   1.247038E-02   1.300608E-02   1.307816E-02   1.294325E-02   1.271442E-02   1.278452E-02   1.248493E-02   1.234340E-02   1.236126E-02   1.218865E-02   1.213905E-02   1.218534E-02   1.210796E-02   1.185930E-02   1.189832E-02   1.213442E-02   1.201604E-02   1.215955E-02   1.181631E-02   1.172438E-02   1.188774E-02   1.202001E-02   1.386451E-01
   1.386451E-01   1.234803E-02   1.240623E-02   1.283677E-02   1.283809E-02   1.270252E-02   1.259009E-02   1.273096E-02   1.254181E-02   1.236854E-02   1.230174E-02   1.244128E-02   1.271641E-02   1.283809E-02   1.315686E-02   1.269260E-02   1.242409E-02   1.262845E-02   1.259604E-02   1.260596E-02   1.264630E-02   1.264167E-02   1.281759E-02   1.256099E-02   1.259009E-02   1.246377E-02   1.265953E-02   1.229909E-02   1.209474E-02   1.228984E-02   1.215360E-02   1.185930E-02   1.190096E-02   1.203191E-02   1.209275E-02   1.204315E-02   1.219129E-02   1.195585E-02   1.178060E-02   1.196115E-02   1.179515E-02   1.386451E-01
   1.386451E-01   1.234737E-02   1.238772E-02   1.265622E-02   1.272831E-02   1.293597E-02   1.279246E-02   1.261257E-02   1.233745E-02   1.221973E-02   1.243136E-02   1.239830E-02   1.260464E-02   1.253321E-02   1.258083E-02   1.268532E-02   1.252461E-02   1.246575E-02   1.233216E-02   1.247171E-02   1.262514E-02   1.230372E-02   1.225545E-02   1.238044E-02   1.231960E-02   1.225478E-02   1.236523E-02   1.226404E-02   1.210929E-02   1.207622E-02   1.183813E-02   1.191353E-02   1.220122E-02   1.210003E-02   1.218997E-02   1.221114E-02   1.222039E-02   1.214963E-02   1.213177E-02   1.190229E-02   1.165428E-02   1.386451E-01
   1.386451E-01   1.226801E-02   1.261853E-02   1.283479E-02   1.276799E-02   1.270979E-02   1.277196E-02   1.243666E-02   1.247501E-02   1.211458E-02   1.231232E-02   1.260199E-02   1.221180E-02   1.242409E-02   1.238705E-02   1.223759E-02   1.223031E-02   1.219923E-02   1.232952E-02   1.233481E-02   1.234010E-02   1.231232E-02   1.237581E-02   1.233878E-02   1.243203E-02   1.219659E-02   1.227661E-02   1.236854E-02   1.221907E-02   1.234539E-02   1.211392E-02   1.191882E-02   1.195784E-02   1.217278E-02   1.224817E-02   1.196445E-02   1.199818E-02   1.210995E-02   1.213045E-02   1.178192E-02   1.194263E-02   1.386451E-01
   1.386451E-01   1.263638E-02   1.256165E-02   1.290489E-02   1.288307E-02   1.259141E-02   1.233745E-02   1.275212E-02   1.272765E-02   1.247567E-02   1.216749E-02   1.244459E-02   1.261324E-02   1.226007E-02   1.224420E-02   1.227198E-02   1.230703E-02   1.207424E-02   1.209342E-02   1.224023E-02   1.232290E-02   1.225545E-02   1.252990E-02   1.260001E-02   1.254379E-02   1.246443E-02   1.239301E-02   1.239697E-02   1.256694E-02   1.226404E-02   1.253652E-02   1.234208E-02   1.223296E-02   1.208416E-02   1.207953E-02   1.203191E-02   1.190096E-02   1.187319E-02   1.210532E-02   1.204778E-02   1.195784E-02   1.386451E-01
   1.386451E-01   1.276865E-02   1.275344E-02   1.296309E-02   1.294391E-02   1.267077E-02   1.248229E-02   1.260133E-02   1.242277E-02   1.250940E-02   1.252792E-02   1.234737E-02   1.236192E-02   1.235994E-02   1.234142E-02   1.229248E-02   1.229314E-02   1.190956E-02   1.201405E-02   1.200942E-02   1.229909E-02   1.238375E-02   1.235002E-02   1.253387E-02   1.254908E-02   1.263308E-02   1.251403E-02   1.232555E-02   1.276402E-02   1.270516E-02   1.281296E-02   1.255570E-02   1.252329E-02   1.200281E-02   1.184475E-02   1.194792E-02   1.178457E-02   1.191419E-02   1.203191E-02   1.208548E-02   1.224090E-02   1.386451E-01
   1.386451E-01   1.305568E-02   1.297896E-02   1.303121E-02   1.290489E-02   1.258678E-02   1.285198E-02   1.267739E-02   1.245716E-02   1.233415E-02   1.222965E-02   1.257885E-02   1.225545E-02   1.212913E-02   1.217608E-02   1.232026E-02   1.242872E-02   1.213045E-02   1.182359E-02   1.226735E-02   1.209672E-02   1.208350E-02   1.227198E-02   1.235465E-02   1.234671E-02   1.239565E-02   1.255636E-02   1.266482E-02   1.278915E-02   1.273625E-02   1.278585E-02   1.257885E-02   1.235663E-02   1.199355E-02   1.194527E-02   1.190030E-02   1.187583E-02   1.213376E-02   1.232092E-02   1.208812E-02   1.235795E-02   1.386451E-01
   1.386451E-01   1.292738E-02   1.331823E-02   1.301798E-02   1.289365E-02   1.288042E-02   1.297102E-02   1.268334E-02   1.235200E-02   1.236854E-02   1.247964E-02   1.258149E-02   1.253916E-02   1.226007E-02   1.215558E-02   1.239697E-02   1.236391E-02   1.222106E-02   1.212847E-02   1.228653E-02   1.237647E-02   1.220254E-02   1.220055E-02   1.230571E-02   1.242872E-02   1.265688E-02   1.250874E-02   1.266019E-02   1.276468E-02   1.262448E-02   1.248229E-02   1.254975E-02   1.239830E-02   1.228124E-02   1.222106E-02   1.180507E-02   1.211656E-02   1.218534E-02   1.211987E-02   1.230306E-02   1.252395E-02   1.386451E-01
   1.386451E-01   1.281429E-02   1.316017E-02   1.332881E-02   1.328120E-02   1.301798E-02   1.284934E-02   1.254975E-02   1.248559E-02   1.229314E-02   1.238639E-02   1.262117E-02   1.252329E-02   1.223362E-02   1.240888E-02   1.240160E-02   1.221907E-02   1.222701E-02   1.267209E-02   1.260199E-02   1.228058E-02   1.245980E-02   1.236060E-02   1.246642E-02   1.244062E-02   1.230835E-02   1.242872E-02   1.270252E-02   1.263837E-02   1.239697E-02   1.233878E-02   1.244195E-02   1.229711E-02   1.250279E-02   1.251271E-02   1.215029E-02   1.227462E-02   1.263109E-02   1.254379E-02   1.271045E-02   1.271839E-02   1.386451E-01
CONSTANT    1.000000E+00                           #vka2                          
INTERNAL               1  (42E15.6) -1 #hk layer 3                    
   1.386451E-01   1.231232E-02   1.273162E-02   1.265755E-02   1.242806E-02   1.249419E-02   1.246509E-02   1.197437E-02   1.235333E-02   1.246112E-02   1.259670E-02   1.252197E-02   1.251998E-02   1.267540E-02   1.292473E-02   1.319522E-02   1.315885E-02   1.316149E-02   1.353251E-02   1.327062E-02   1.290092E-02   1.328516E-02   1.315819E-02   1.283942E-02   1.337312E-02   1.350738E-02   1.327987E-02   1.305832E-02   1.286653E-02   1.294391E-02   1.295449E-02   1.294920E-02   1.285397E-02   1.308147E-02   1.298227E-02   1.294523E-02   1.271574E-02   1.293002E-02   1.251998E-02   1.244327E-02   1.255504E-02   1.386451E-01
   1.386451E-01   1.221973E-02   1.237515E-02   1.256826E-02   1.256429E-02   1.240557E-02   1.224023E-02   1.216418E-02   1.231960E-02   1.258744E-02   1.211259E-02   1.262051E-02   1.260265E-02   1.271442E-02   1.300608E-02   1.293796E-02   1.310660E-02   1.314099E-02   1.330368E-02   1.330434E-02   1.317340E-02   1.317670E-02   1.307023E-02   1.307287E-02   1.302525E-02   1.330501E-02   1.334138E-02   1.307353E-02   1.285727E-02   1.286455E-02   1.306560E-02   1.276336E-02   1.277527E-02   1.312776E-02   1.330236E-02   1.308610E-02   1.279114E-02   1.248030E-02   1.255768E-02   1.262514E-02   1.217873E-02   1.386451E-01
   1.386451E-01   1.245451E-02   1.240227E-02   1.222106E-02   1.239301E-02   1.241681E-02   1.231364E-02   1.248361E-02   1.234671E-02   1.237118E-02   1.225148E-02   1.223957E-02   1.241748E-02   1.261985E-02   1.274286E-02   1.279974E-02   1.314430E-02   1.337180E-02   1.329641E-02   1.321043E-02   1.355037E-02   1.342405E-02   1.308279E-02   1.314827E-02   1.316943E-02   1.336651E-02   1.341743E-02   1.300740E-02   1.296375E-02   1.295714E-02   1.300277E-02   1.285793E-02   1.276865E-02   1.309933E-02   1.314165E-02   1.317274E-02   1.306427E-02   1.274154E-02   1.278386E-02   1.281958E-02   1.245253E-02   1.386451E-01
   1.386451E-01   1.233613E-02   1.207027E-02   1.234208E-02   1.250808E-02   1.266350E-02   1.253586E-02   1.252924E-02   1.287248E-02   1.248163E-02   1.236655E-02   1.247634E-02   1.235795E-02   1.242078E-02   1.273029E-02   1.283611E-02   1.286455E-02   1.297235E-02   1.298293E-02   1.312446E-02   1.310660E-02   1.329641E-02   1.316282E-02   1.316083E-02   1.330831E-02   1.338569E-02   1.352854E-02   1.334270E-02   1.294655E-02   1.311388E-02   1.310528E-02   1.302459E-02   1.279709E-02   1.280833E-02   1.269127E-02   1.286785E-02   1.276601E-02   1.266614E-02   1.266151E-02   1.266284E-02   1.259604E-02   1.386451E-01
   1.386451E-01   1.250279E-02   1.256959E-02   1.240425E-02   1.273625E-02   1.308213E-02   1.280304E-02   1.272897E-02   1.262845E-02   1.226206E-02   1.221576E-02   1.232753E-02   1.250411E-02   1.263241E-02   1.263704E-02   1.288373E-02   1.295185E-02   1.309139E-02   1.276270E-02   1.263572E-02   1.311123E-02   1.314562E-02   1.334072E-02   1.320117E-02   1.315488E-02   1.332881E-02   1.336982E-02   1.333543E-02   1.303385E-02   1.285860E-02   1.267143E-02   1.284669E-02   1.296110E-02   1.271111E-02   1.235729E-02   1.251337E-02   1.290555E-02   1.268731E-02   1.275080E-02   1.262514E-02   1.257554E-02   1.386451E-01