# Name file for MT3DMS, generated by Flopy version 3.3.0.
LIST              16  td4_mt.list
FTL               10  mt3d_link.ftl 
BTN               31  td4_mt.btn
ADV               32  td4_mt.adv
DSP               33  td4_mt.dsp
SSM               34  td4_mt.ssm
GCG               35  td4_mt.gcg
