# Name file for MT3DMS, generated by Flopy version 3.3.0.
LIST              16  td2_mt.list
FTL               10  mt3d_link.ftl 
BTN               31  td2_mt.btn
ADV               32  td2_mt.adv
DSP               33  td2_mt.dsp
SSM               34  td2_mt.ssm
GCG               35  td2_mt.gcg
