# LPF package for  MODFLOW-2005, generated by Flopy.
         0    -1E+30         0  
         0         0         0         0         0         0         0         0         0         0         0         0         0         0         0         0         0         0         0         0
         0         0         0         0         0         0         0         0         0         0         0         0         0         0         0         0         0         0         0         0
   1.000000E+00   1.000000E+00   1.000000E+00   1.000000E+00   1.000000E+00   1.000000E+00   1.000000E+00   1.000000E+00   1.000000E+00   1.000000E+00   1.000000E+00   1.000000E+00   1.000000E+00   1.000000E+00   1.000000E+00   1.000000E+00   1.000000E+00   1.000000E+00   1.000000E+00   1.000000E+00
         0         0         0         0         0         0         0         0         0         0         0         0         0         0         0         0         0         0         0         0
         0         0         0         0         0         0         0         0         0         0         0         0         0         0         0         0         0         0         0         0
INTERNAL               1  (42E15.6) -1 #hk layer 1                    
   0.000000E+00   0.000000E+00   0.000000E+00   0.000000E+00   0.000000E+00   0.000000E+00   0.000000E+00   0.000000E+00   0.000000E+00   0.000000E+00   0.000000E+00   0.000000E+00   0.000000E+00   0.000000E+00   0.000000E+00   0.000000E+00   0.000000E+00   0.000000E+00   0.000000E+00   0.000000E+00   0.000000E+00   0.000000E+00   0.000000E+00   0.000000E+00   0.000000E+00   0.000000E+00   0.000000E+00   0.000000E+00   0.000000E+00   0.000000E+00   0.000000E+00   0.000000E+00   0.000000E+00   0.000000E+00   0.000000E+00   0.000000E+00   0.000000E+00   0.000000E+00   0.000000E+00   0.000000E+00   0.000000E+00   0.000000E+00
   0.000000E+00   0.000000E+00   0.000000E+00   0.000000E+00   0.000000E+00   0.000000E+00   0.000000E+00   0.000000E+00   0.000000E+00   0.000000E+00   0.000000E+00   0.000000E+00   0.000000E+00   0.000000E+00   0.000000E+00   0.000000E+00   0.000000E+00   0.000000E+00   0.000000E+00   0.000000E+00   0.000000E+00   0.000000E+00   0.000000E+00   0.000000E+00   0.000000E+00   0.000000E+00   0.000000E+00   0.000000E+00   0.000000E+00   0.000000E+00   0.000000E+00   0.000000E+00   0.000000E+00   0.000000E+00   0.000000E+00   0.000000E+00   0.000000E+00   0.000000E+00   0.000000E+00   0.000000E+00   0.000000E+00   0.000000E+00
   0.000000E+00   0.000000E+00   0.000000E+00   0.000000E+00   0.000000E+00   0.000000E+00   0.000000E+00   0.000000E+00   0.000000E+00   0.000000E+00   0.000000E+00   0.000000E+00   0.000000E+00   0.000000E+00   0.000000E+00   0.000000E+00   0.000000E+00   0.000000E+00   0.000000E+00   0.000000E+00   0.000000E+00   0.000000E+00   0.000000E+00   0.000000E+00   0.000000E+00   0.000000E+00   0.000000E+00   0.000000E+00   0.000000E+00   0.000000E+00   0.000000E+00   0.000000E+00   0.000000E+00   0.000000E+00   0.000000E+00   0.000000E+00   0.000000E+00   0.000000E+00   0.000000E+00   0.000000E+00   0.000000E+00   0.000000E+00
   0.000000E+00   0.000000E+00   0.000000E+00   0.000000E+00   0.000000E+00   0.000000E+00   0.000000E+00   0.000000E+00   0.000000E+00   0.000000E+00   0.000000E+00   0.000000E+00   0.000000E+00   0.000000E+00   0.000000E+00   0.000000E+00   0.000000E+00   0.000000E+00   0.000000E+00   0.000000E+00   0.000000E+00   0.000000E+00   0.000000E+00   0.000000E+00   0.000000E+00   0.000000E+00   0.000000E+00   0.000000E+00   0.000000E+00   0.000000E+00   0.000000E+00   0.000000E+00   0.000000E+00   0.000000E+00   0.000000E+00   0.000000E+00   0.000000E+00   0.000000E+00   0.000000E+00   0.000000E+00   0.000000E+00   0.000000E+00
   0.000000E+00   0.000000E+00   0.000000E+00   0.000000E+00   0.000000E+00   0.000000E+00   0.000000E+00   0.000000E+00   0.000000E+00   0.000000E+00   0.000000E+00   0.000000E+00   0.000000E+00   0.000000E+00   0.000000E+00   0.000000E+00   0.000000E+00   0.000000E+00   0.000000E+00   0.000000E+00   0.000000E+00   0.000000E+00   0.000000E+00   0.000000E+00   0.000000E+00   0.000000E+00   0.000000E+00   0.000000E+00   0.000000E+00   0.000000E+00   0.000000E+00   0.000000E+00   0.000000E+00   0.000000E+00   0.000000E+00   0.000000E+00   0.000000E+00   0.000000E+00   0.000000E+00   0.000000E+00   0.000000E+00   0.000000E+00
   0.000000E+00   0.000000E+00   0.000000E+00   0.000000E+00   0.000000E+00   0.000000E+00   0.000000E+00   0.000000E+00   0.000000E+00   0.000000E+00   0.000000E+00   0.000000E+00   0.000000E+00   0.000000E+00   0.000000E+00   0.000000E+00   0.000000E+00   0.000000E+00   0.000000E+00   0.000000E+00   0.000000E+00   0.000000E+00   0.000000E+00   0.000000E+00   0.000000E+00   0.000000E+00   0.000000E+00   0.000000E+00   0.000000E+00   0.000000E+00   0.000000E+00   0.000000E+00   0.000000E+00   0.000000E+00   0.000000E+00   0.000000E+00   0.000000E+00   0.000000E+00   0.000000E+00   0.000000E+00   0.000000E+00   0.000000E+00
   0.000000E+00   0.000000E+00   0.000000E+00   0.000000E+00   0.000000E+00   0.000000E+00   0.000000E+00   0.000000E+00   0.000000E+00   0.000000E+00   0.000000E+00   0.000000E+00   0.000000E+00   0.000000E+00   0.000000E+00   0.000000E+00   0.000000E+00   0.000000E+00   0.000000E+00   0.000000E+00   0.000000E+00   0.000000E+00   0.000000E+00   0.000000E+00   0.000000E+00   0.000000E+00   0.000000E+00   0.000000E+00   0.000000E+00   0.000000E+00   0.000000E+00   0.000000E+00   0.000000E+00   0.000000E+00   0.000000E+00   0.000000E+00   0.000000E+00   0.000000E+00   0.000000E+00   0.000000E+00   0.000000E+00   0.000000E+00
   2.865622E-02   2.415244E-03   2.390113E-03   2.435084E-03   2.460877E-03   2.376886E-03   2.437069E-03   2.402678E-03   2.404663E-03   2.424503E-03   2.437069E-03   2.409292E-03   2.444343E-03   2.464845E-03   2.404663E-03   2.407308E-03   2.435746E-03   2.415905E-03   2.446327E-03   2.478072E-03   2.451618E-03   2.464184E-03   2.491961E-03   2.461538E-03   2.527673E-03   2.525689E-03   2.544868E-03   2.581904E-03   2.581904E-03   2.560079E-03   2.530980E-03   2.577936E-03   2.539577E-03   2.512462E-03   2.461538E-03   2.447650E-03   2.402017E-03   2.420535E-03   2.393420E-03   2.374240E-03   2.343157E-03   2.865622E-02
   2.865622E-02   2.485347E-03   2.501881E-03   2.511139E-03   2.469475E-03   2.465507E-03   2.470797E-03   2.497251E-03   2.530980E-03   2.531641E-03   2.511801E-03   2.510478E-03   2.482702E-03   2.480718E-03   2.529657E-03   2.536271E-03   2.541562E-03   2.540239E-03   2.571322E-03   2.544868E-03   2.597776E-03   2.552143E-03   2.554127E-03   2.545530E-03   2.552143E-03   2.589840E-03   2.674493E-03   2.644732E-03   2.601744E-03   2.678461E-03   2.648700E-03   2.562063E-03   2.573306E-03   2.606374E-03   2.536271E-03   2.485347E-03   2.462200E-03   2.408630E-03   2.433100E-03   2.388129E-03   2.359691E-03   2.865622E-02
   2.865622E-02   2.471459E-03   2.413921E-03   2.420535E-03   2.432439E-03   2.460216E-03   2.409953E-03   2.442359E-03   2.485347E-03   2.515769E-03   2.512462E-03   2.494606E-03   2.504526E-03   2.523044E-03   2.573306E-03   2.554127E-03   2.578597E-03   2.597115E-03   2.527012E-03   2.548836E-03   2.609019E-03   2.596454E-03   2.589840E-03   2.611665E-03   2.612326E-03   2.610342E-03   2.639441E-03   2.642086E-03   2.611665E-03   2.554788E-03   2.513785E-03   2.431778E-03   2.480718E-03   2.462200E-03   2.499897E-03   2.507171E-03   2.456909E-03   2.407308E-03   2.431778E-03   2.415244E-03   2.441698E-03   2.865622E-02
   2.865622E-02   2.363659E-03   2.420535E-03   2.489976E-03   2.438391E-03   2.430455E-03   2.487992E-03   2.439714E-03   2.429132E-03   2.458893E-03   2.458893E-03   2.464184E-03   2.432439E-03   2.462200E-03   2.521721E-03   2.605712E-03   2.587195E-03   2.577936E-03   2.522382E-03   2.540239E-03   2.527673E-03   2.567354E-03   2.573968E-03   2.546852E-03   2.512462E-03   2.495928E-03   2.515108E-03   2.503203E-03   2.534287E-03   2.521721E-03   2.520398E-03   2.505849E-03   2.482040E-03   2.460877E-03   2.518414E-03   2.558095E-03   2.534287E-03   2.532964E-03   2.538916E-03   2.536932E-03   2.513785E-03   2.865622E-02
   2.865622E-02   2.367627E-03   2.464184E-03   2.435084E-03   2.487331E-03   2.522382E-03   2.503203E-03   2.495928E-03   2.468152E-03   2.466168E-03   2.509817E-03   2.581242E-03   2.533625E-03   2.544207E-03   2.555450E-03   2.551482E-03   2.544868E-03   2.585211E-03   2.568016E-03   2.521060E-03   2.536271E-03   2.544207E-03   2.564047E-03   2.585211E-03   2.532303E-03   2.532964E-03   2.512462E-03   2.534287E-03   2.529657E-03   2.551482E-03   2.567354E-03   2.582565E-03   2.569338E-03   2.622908E-03   2.599760E-03   2.623569E-03   2.669202E-03   2.630844E-03   2.586533E-03   2.597776E-03   2.634812E-03   2.865622E-02
   2.865622E-02   2.533625E-03   2.542884E-03   2.500558E-03   2.527012E-03   2.525689E-03   2.499897E-03   2.512462E-03   2.478733E-03   2.463522E-03   2.449634E-03   2.462861E-03   2.538255E-03   2.504526E-03   2.503865E-03   2.491961E-03   2.528335E-03   2.448312E-03   2.425826E-03   2.488654E-03   2.511801E-03   2.498574E-03   2.552805E-03   2.611003E-03   2.527673E-03   2.508494E-03   2.492622E-03   2.540900E-03   2.497251E-03   2.466168E-03   2.482702E-03   2.523705E-03   2.509817E-03   2.475427E-03   2.480056E-03   2.488654E-03   2.487992E-03   2.534287E-03   2.571322E-03   2.596454E-03   2.588517E-03   2.865622E-02
   0.000000E+00   0.000000E+00   0.000000E+00   0.000000E+00   0.000000E+00   0.000000E+00   0.000000E+00   0.000000E+00   0.000000E+00   0.000000E+00   0.000000E+00   0.000000E+00   0.000000E+00   0.000000E+00   0.000000E+00   0.000000E+00   0.000000E+00   0.000000E+00   0.000000E+00   0.000000E+00   0.000000E+00   0.000000E+00   0.000000E+00   0.000000E+00   0.000000E+00   0.000000E+00   0.000000E+00   0.000000E+00   0.000000E+00   0.000000E+00   0.000000E+00   0.000000E+00   0.000000E+00   0.000000E+00   0.000000E+00   0.000000E+00   0.000000E+00   0.000000E+00   0.000000E+00   0.000000E+00   0.000000E+00   0.000000E+00
   0.000000E+00   0.000000E+00   0.000000E+00   0.000000E+00   0.000000E+00   0.000000E+00   0.000000E+00   0.000000E+00   0.000000E+00   0.000000E+00   0.000000E+00   0.000000E+00   0.000000E+00   0.000000E+00   0.000000E+00   0.000000E+00   0.000000E+00   0.000000E+00   0.000000E+00   0.000000E+00   0.000000E+00   0.000000E+00   0.000000E+00   0.000000E+00   0.000000E+00   0.000000E+00   0.000000E+00   0.000000E+00   0.000000E+00   0.000000E+00   0.000000E+00   0.000000E+00   0.000000E+00   0.000000E+00   0.000000E+00   0.000000E+00   0.000000E+00   0.000000E+00   0.000000E+00   0.000000E+00   0.000000E+00   0.000000E+00
   0.000000E+00   0.000000E+00   0.000000E+00   0.000000E+00   0.000000E+00   0.000000E+00   0.000000E+00   0.000000E+00   0.000000E+00   0.000000E+00   0.000000E+00   0.000000E+00   0.000000E+00   0.000000E+00   0.000000E+00   0.000000E+00   0.000000E+00   0.000000E+00   0.000000E+00   0.000000E+00   0.000000E+00   0.000000E+00   0.000000E+00   0.000000E+00   0.000000E+00   0.000000E+00   0.000000E+00   0.000000E+00   0.000000E+00   0.000000E+00   0.000000E+00   0.000000E+00   0.000000E+00   0.000000E+00   0.000000E+00   0.000000E+00   0.000000E+00   0.000000E+00   0.000000E+00   0.000000E+00   0.000000E+00   0.000000E+00
   0.000000E+00   0.000000E+00   0.000000E+00   0.000000E+00   0.000000E+00   0.000000E+00   0.000000E+00   0.000000E+00   0.000000E+00   0.000000E+00   0.000000E+00   0.000000E+00   0.000000E+00   0.000000E+00   0.000000E+00   0.000000E+00   0.000000E+00   0.000000E+00   0.000000E+00   0.000000E+00   0.000000E+00   0.000000E+00   0.000000E+00   0.000000E+00   0.000000E+00   0.000000E+00   0.000000E+00   0.000000E+00   0.000000E+00   0.000000E+00   0.000000E+00   0.000000E+00   0.000000E+00   0.000000E+00   0.000000E+00   0.000000E+00   0.000000E+00   0.000000E+00   0.000000E+00   0.000000E+00   0.000000E+00   0.000000E+00
   0.000000E+00   0.000000E+00   0.000000E+00   0.000000E+00   0.000000E+00   0.000000E+00   0.000000E+00   0.000000E+00   0.000000E+00   0.000000E+00   0.000000E+00   0.000000E+00   0.000000E+00   0.000000E+00   0.000000E+00   0.000000E+00   0.000000E+00   0.000000E+00   0.000000E+00   0.000000E+00   0.000000E+00   0.000000E+00   0.000000E+00   0.000000E+00   0.000000E+00   0.000000E+00   0.000000E+00   0.000000E+00   0.000000E+00   0.000000E+00   0.000000E+00   0.000000E+00   0.000000E+00   0.000000E+00   0.000000E+00   0.000000E+00   0.000000E+00   0.000000E+00   0.000000E+00   0.000000E+00   0.000000E+00   0.000000E+00
   0.000000E+00   0.000000E+00   0.000000E+00   0.000000E+00   0.000000E+00   0.000000E+00   0.000000E+00   0.000000E+00   0.000000E+00   0.000000E+00   0.000000E+00   0.000000E+00   0.000000E+00   0.000000E+00   0.000000E+00   0.000000E+00   0.000000E+00   0.000000E+00   0.000000E+00   0.000000E+00   0.000000E+00   0.000000E+00   0.000000E+00   0.000000E+00   0.000000E+00   0.000000E+00   0.000000E+00   0.000000E+00   0.000000E+00   0.000000E+00   0.000000E+00   0.000000E+00   0.000000E+00   0.000000E+00   0.000000E+00   0.000000E+00   0.000000E+00   0.000000E+00   0.000000E+00   0.000000E+00   0.000000E+00   0.000000E+00
   0.000000E+00   0.000000E+00   0.000000E+00   0.000000E+00   0.000000E+00   0.000000E+00   0.000000E+00   0.000000E+00   0.000000E+00   0.000000E+00   0.000000E+00   0.000000E+00   0.000000E+00   0.000000E+00   0.000000E+00   0.000000E+00   0.000000E+00   0.000000E+00   0.000000E+00   0.000000E+00   0.000000E+00   0.000000E+00   0.000000E+00   0.000000E+00   0.000000E+00   0.000000E+00   0.000000E+00   0.000000E+00   0.000000E+00   0.000000E+00   0.000000E+00   0.000000E+00   0.000000E+00   0.000000E+00   0.000000E+00   0.000000E+00   0.000000E+00   0.000000E+00   0.000000E+00   0.000000E+00   0.000000E+00   0.000000E+00
CONSTANT    1.000000E+00                           #vka1                          
INTERNAL               1  (42E15.6) -1 #hk layer 2                    
   0.000000E+00   0.000000E+00   0.000000E+00   0.000000E+00   0.000000E+00   0.000000E+00   0.000000E+00   0.000000E+00   0.000000E+00   0.000000E+00   0.000000E+00   0.000000E+00   0.000000E+00   0.000000E+00   0.000000E+00   0.000000E+00   0.000000E+00   0.000000E+00   0.000000E+00   0.000000E+00   0.000000E+00   0.000000E+00   0.000000E+00   0.000000E+00   0.000000E+00   0.000000E+00   0.000000E+00   0.000000E+00   0.000000E+00   0.000000E+00   0.000000E+00   0.000000E+00   0.000000E+00   0.000000E+00   0.000000E+00   0.000000E+00   0.000000E+00   0.000000E+00   0.000000E+00   0.000000E+00   0.000000E+00   0.000000E+00
   0.000000E+00   0.000000E+00   0.000000E+00   0.000000E+00   0.000000E+00   0.000000E+00   0.000000E+00   0.000000E+00   0.000000E+00   0.000000E+00   0.000000E+00   0.000000E+00   0.000000E+00   0.000000E+00   0.000000E+00   0.000000E+00   0.000000E+00   0.000000E+00   0.000000E+00   0.000000E+00   0.000000E+00   0.000000E+00   0.000000E+00   0.000000E+00   0.000000E+00   0.000000E+00   0.000000E+00   0.000000E+00   0.000000E+00   0.000000E+00   0.000000E+00   0.000000E+00   0.000000E+00   0.000000E+00   0.000000E+00   0.000000E+00   0.000000E+00   0.000000E+00   0.000000E+00   0.000000E+00   0.000000E+00   0.000000E+00
   0.000000E+00   0.000000E+00   0.000000E+00   0.000000E+00   0.000000E+00   0.000000E+00   0.000000E+00   0.000000E+00   0.000000E+00   0.000000E+00   0.000000E+00   0.000000E+00   0.000000E+00   0.000000E+00   0.000000E+00   0.000000E+00   0.000000E+00   0.000000E+00   0.000000E+00   0.000000E+00   0.000000E+00   0.000000E+00   0.000000E+00   0.000000E+00   0.000000E+00   0.000000E+00   0.000000E+00   0.000000E+00   0.000000E+00   0.000000E+00   0.000000E+00   0.000000E+00   0.000000E+00   0.000000E+00   0.000000E+00   0.000000E+00   0.000000E+00   0.000000E+00   0.000000E+00   0.000000E+00   0.000000E+00   0.000000E+00
   0.000000E+00   0.000000E+00   0.000000E+00   0.000000E+00   0.000000E+00   0.000000E+00   0.000000E+00   0.000000E+00   0.000000E+00   0.000000E+00   0.000000E+00   0.000000E+00   0.000000E+00   0.000000E+00   0.000000E+00   0.000000E+00   0.000000E+00   0.000000E+00   0.000000E+00   0.000000E+00   0.000000E+00   0.000000E+00   0.000000E+00   0.000000E+00   0.000000E+00   0.000000E+00   0.000000E+00   0.000000E+00   0.000000E+00   0.000000E+00   0.000000E+00   0.000000E+00   0.000000E+00   0.000000E+00   0.000000E+00   0.000000E+00   0.000000E+00   0.000000E+00   0.000000E+00   0.000000E+00   0.000000E+00   0.000000E+00
   0.000000E+00   0.000000E+00   0.000000E+00   0.000000E+00   0.000000E+00   0.000000E+00   0.000000E+00   0.000000E+00   0.000000E+00   0.000000E+00   0.000000E+00   0.000000E+00   0.000000E+00   0.000000E+00   0.000000E+00   0.000000E+00   0.000000E+00   0.000000E+00   0.000000E+00   0.000000E+00   0.000000E+00   0.000000E+00   0.000000E+00   0.000000E+00   0.000000E+00   0.000000E+00   0.000000E+00   0.000000E+00   0.000000E+00   0.000000E+00   0.000000E+00   0.000000E+00   0.000000E+00   0.000000E+00   0.000000E+00   0.000000E+00   0.000000E+00   0.000000E+00   0.000000E+00   0.000000E+00   0.000000E+00   0.000000E+00
   2.865622E-02   2.433762E-03   2.392758E-03   2.449634E-03   2.469475E-03   2.491299E-03   2.482040E-03   2.523705E-03   2.482040E-03   2.499235E-03   2.437069E-03   2.454264E-03   2.436407E-03   2.353077E-03   2.332576E-03   2.407969E-03   2.437069E-03   2.395404E-03   2.425164E-03   2.437069E-03   2.428471E-03   2.415244E-03   2.460216E-03   2.485347E-03   2.443021E-03   2.424503E-03   2.417228E-03   2.425164E-03   2.402678E-03   2.401356E-03   2.417228E-03   2.370934E-03   2.391435E-03   2.365643E-03   2.333237E-03   2.323317E-03   2.364320E-03   2.354400E-03   2.370272E-03   2.307444E-03   2.325962E-03   2.865622E-02
   2.865622E-02   2.324639E-03   2.351755E-03   2.366966E-03   2.366304E-03   2.415244E-03   2.380854E-03   2.376886E-03   2.383499E-03   2.356384E-03   2.349109E-03   2.448973E-03   2.474104E-03   2.423842E-03   2.465507E-03   2.410615E-03   2.387467E-03   2.475427E-03   2.450295E-03   2.431116E-03   2.399372E-03   2.446327E-03   2.422519E-03   2.469475E-03   2.445005E-03   2.433100E-03   2.441698E-03   2.453602E-03   2.430455E-03   2.454264E-03   2.523705E-03   2.484686E-03   2.493283E-03   2.463522E-03   2.442359E-03   2.437730E-03   2.483363E-03   2.502542E-03   2.439714E-03   2.415905E-03   2.404001E-03   2.865622E-02
   2.865622E-02   2.443682E-03   2.414583E-03   2.327946E-03   2.358368E-03   2.364982E-03   2.360352E-03   2.351093E-03   2.412599E-03   2.381515E-03   2.396065E-03   2.411276E-03   2.415905E-03   2.482040E-03   2.498574E-03   2.462200E-03   2.455586E-03   2.536271E-03   2.503865E-03   2.493283E-03   2.480718E-03   2.460877E-03   2.448973E-03   2.498574E-03   2.524367E-03   2.535610E-03   2.545530E-03   2.526351E-03   2.560741E-03   2.598437E-03   2.564709E-03   2.569338E-03   2.554788E-03   2.557434E-03   2.465507E-03   2.448312E-03   2.433762E-03   2.456248E-03   2.453602E-03   2.434423E-03   2.413260E-03   2.865622E-02
   2.865622E-02   2.386145E-03   2.446327E-03   2.472120E-03   2.503203E-03   2.458232E-03   2.460216E-03   2.458232E-03   2.437069E-03   2.446327E-03   2.466829E-03   2.484686E-03   2.520398E-03   2.534948E-03   2.530980E-03   2.511139E-03   2.474765E-03   2.471459E-03   2.554788E-03   2.562725E-03   2.579920E-03   2.567354E-03   2.616294E-03   2.540239E-03   2.532964E-03   2.601744E-03   2.556111E-03   2.561402E-03   2.573306E-03   2.577936E-03   2.539577E-03   2.551482E-03   2.484686E-03   2.524367E-03   2.546852E-03   2.530319E-03   2.527012E-03   2.523044E-03   2.471459E-03   2.414583E-03   2.415905E-03   2.865622E-02
   2.865622E-02   2.505849E-03   2.463522E-03   2.430455E-03   2.402017E-03   2.406646E-03   2.420535E-03   2.413260E-03   2.384822E-03   2.425826E-03   2.461538E-03   2.441698E-03   2.498574E-03   2.544207E-03   2.601083E-03   2.590501E-03   2.621585E-03   2.612987E-03   2.640103E-03   2.608358E-03   2.603067E-03   2.609019E-03   2.600422E-03   2.581242E-03   2.618939E-03   2.615632E-03   2.568016E-03   2.561402E-03   2.540239E-03   2.546852E-03   2.583226E-03   2.523705E-03   2.503865E-03   2.541562E-03   2.562063E-03   2.508494E-03   2.589179E-03   2.592485E-03   2.530319E-03   2.566031E-03   2.532964E-03   2.865622E-02
   2.865622E-02   2.421858E-03   2.365643E-03   2.366304E-03   2.377547E-03   2.385483E-03   2.380854E-03   2.397388E-03   2.391435E-03   2.349109E-03   2.394081E-03   2.416567E-03   2.449634E-03   2.499897E-03   2.495267E-03   2.536271E-03   2.547514E-03   2.547514E-03   2.520398E-03   2.534287E-03   2.556111E-03   2.563386E-03   2.537593E-03   2.519076E-03   2.523705E-03   2.512462E-03   2.536271E-03   2.497251E-03   2.555450E-03   2.499235E-03   2.506510E-03   2.568677E-03   2.634812E-03   2.624891E-03   2.640103E-03   2.652668E-03   2.609680E-03   2.564047E-03   2.573306E-03   2.575290E-03   2.533625E-03   2.865622E-02
   2.865622E-02   2.396726E-03   2.446989E-03   2.472781E-03   2.419873E-03   2.350432E-03   2.404001E-03   2.448312E-03   2.372256E-03   2.407969E-03   2.435746E-03   2.455586E-03   2.474765E-03   2.523044E-03   2.472781E-03   2.495267E-03   2.438391E-03   2.423842E-03   2.454925E-03   2.493944E-03   2.508494E-03   2.527012E-03   2.548175E-03   2.509156E-03   2.482040E-03   2.486008E-03   2.511139E-03   2.517092E-03   2.506510E-03   2.501881E-03   2.517753E-03   2.552805E-03   2.602406E-03   2.653991E-03   2.636796E-03   2.630182E-03   2.623569E-03   2.615632E-03   2.645393E-03   2.618278E-03   2.618939E-03   2.865622E-02
   2.865622E-02   2.489315E-03   2.503865E-03   2.513124E-03   2.482702E-03   2.452279E-03   2.420535E-03   2.446989E-03   2.452279E-03   2.460877E-03   2.421858E-03   2.427810E-03   2.405324E-03   2.412599E-03   2.469475E-03   2.440375E-03   2.448312E-03   2.482040E-03   2.503865E-03   2.512462E-03   2.564709E-03   2.616294E-03   2.557434E-03   2.590501E-03   2.530319E-03   2.472781E-03   2.464184E-03   2.510478E-03   2.473443E-03   2.503203E-03   2.457570E-03   2.441698E-03   2.499897E-03   2.518414E-03   2.499897E-03   2.465507E-03   2.476088E-03   2.478733E-03   2.507833E-03   2.543546E-03   2.538255E-03   2.865622E-02
   2.865622E-02   2.454925E-03   2.458232E-03   2.470136E-03   2.477411E-03   2.443682E-03   2.376224E-03   2.383499E-03   2.434423E-03   2.375563E-03   2.412599E-03   2.389451E-03   2.400033E-03   2.420535E-03   2.464845E-03   2.453602E-03   2.484686E-03   2.482702E-03   2.482702E-03   2.544207E-03   2.549498E-03   2.528996E-03   2.502542E-03   2.564709E-03   2.507171E-03   2.491961E-03   2.530980E-03   2.518414E-03   2.523044E-03   2.540900E-03   2.541562E-03   2.542884E-03   2.535610E-03   2.516430E-03   2.526351E-03   2.546191E-03   2.464845E-03   2.449634E-03   2.468813E-03   2.503865E-03   2.448312E-03   2.865622E-02
   2.865622E-02   2.407308E-03   2.450295E-03   2.432439E-03   2.430455E-03   2.455586E-03   2.489315E-03   2.437069E-03   2.485347E-03   2.527012E-03   2.541562E-03   2.499235E-03   2.467490E-03   2.468152E-03   2.485347E-03   2.465507E-03   2.433100E-03   2.478072E-03   2.520398E-03   2.519076E-03   2.521060E-03   2.484686E-03   2.506510E-03   2.454264E-03   2.482040E-03   2.488654E-03   2.513785E-03   2.486008E-03   2.503865E-03   2.549498E-03   2.531641E-03   2.503865E-03   2.484686E-03   2.492622E-03   2.469475E-03   2.477411E-03   2.426487E-03   2.435746E-03   2.408630E-03   2.393420E-03   2.390774E-03   2.865622E-02
   0.000000E+00   0.000000E+00   0.000000E+00   0.000000E+00   0.000000E+00   0.000000E+00   0.000000E+00   0.000000E+00   0.000000E+00   0.000000E+00   0.000000E+00   0.000000E+00   0.000000E+00   0.000000E+00   0.000000E+00   0.000000E+00   0.000000E+00   0.000000E+00   0.000000E+00   0.000000E+00   0.000000E+00   0.000000E+00   0.000000E+00   0.000000E+00   0.000000E+00   0.000000E+00   0.000000E+00   0.000000E+00   0.000000E+00   0.000000E+00   0.000000E+00   0.000000E+00   0.000000E+00   0.000000E+00   0.000000E+00   0.000000E+00   0.000000E+00   0.000000E+00   0.000000E+00   0.000000E+00   0.000000E+00   0.000000E+00
   0.000000E+00   0.000000E+00   0.000000E+00   0.000000E+00   0.000000E+00   0.000000E+00   0.000000E+00   0.000000E+00   0.000000E+00   0.000000E+00   0.000000E+00   0.000000E+00   0.000000E+00   0.000000E+00   0.000000E+00   0.000000E+00   0.000000E+00   0.000000E+00   0.000000E+00   0.000000E+00   0.000000E+00   0.000000E+00   0.000000E+00   0.000000E+00   0.000000E+00   0.000000E+00   0.000000E+00   0.000000E+00   0.000000E+00   0.000000E+00   0.000000E+00   0.000000E+00   0.000000E+00   0.000000E+00   0.000000E+00   0.000000E+00   0.000000E+00   0.000000E+00   0.000000E+00   0.000000E+00   0.000000E+00   0.000000E+00
   0.000000E+00   0.000000E+00   0.000000E+00   0.000000E+00   0.000000E+00   0.000000E+00   0.000000E+00   0.000000E+00   0.000000E+00   0.000000E+00   0.000000E+00   0.000000E+00   0.000000E+00   0.000000E+00   0.000000E+00   0.000000E+00   0.000000E+00   0.000000E+00   0.000000E+00   0.000000E+00   0.000000E+00   0.000000E+00   0.000000E+00   0.000000E+00   0.000000E+00   0.000000E+00   0.000000E+00   0.000000E+00   0.000000E+00   0.000000E+00   0.000000E+00   0.000000E+00   0.000000E+00   0.000000E+00   0.000000E+00   0.000000E+00   0.000000E+00   0.000000E+00   0.000000E+00   0.000000E+00   0.000000E+00   0.000000E+00
   0.000000E+00   0.000000E+00   0.000000E+00   0.000000E+00   0.000000E+00   0.000000E+00   0.000000E+00   0.000000E+00   0.000000E+00   0.000000E+00   0.000000E+00   0.000000E+00   0.000000E+00   0.000000E+00   0.000000E+00   0.000000E+00   0.000000E+00   0.000000E+00   0.000000E+00   0.000000E+00   0.000000E+00   0.000000E+00   0.000000E+00   0.000000E+00   0.000000E+00   0.000000E+00   0.000000E+00   0.000000E+00   0.000000E+00   0.000000E+00   0.000000E+00   0.000000E+00   0.000000E+00   0.000000E+00   0.000000E+00   0.000000E+00   0.000000E+00   0.000000E+00   0.000000E+00   0.000000E+00   0.000000E+00   0.000000E+00
   0.000000E+00   0.000000E+00   0.000000E+00   0.000000E+00   0.000000E+00   0.000000E+00   0.000000E+00   0.000000E+00   0.000000E+00   0.000000E+00   0.000000E+00   0.000000E+00   0.000000E+00   0.000000E+00   0.000000E+00   0.000000E+00   0.000000E+00   0.000000E+00   0.000000E+00   0.000000E+00   0.000000E+00   0.000000E+00   0.000000E+00   0.000000E+00   0.000000E+00   0.000000E+00   0.000000E+00   0.000000E+00   0.000000E+00   0.000000E+00   0.000000E+00   0.000000E+00   0.000000E+00   0.000000E+00   0.000000E+00   0.000000E+00   0.000000E+00   0.000000E+00   0.000000E+00   0.000000E+00   0.000000E+00   0.000000E+00
CONSTANT    1.000000E+00                           #vka2                          
INTERNAL               1  (42E15.6) -1 #hk layer 3                    
   0.000000E+00   0.000000E+00   0.000000E+00   0.000000E+00   0.000000E+00   0.000000E+00   0.000000E+00   0.000000E+00   0.000000E+00   0.000000E+00   0.000000E+00   0.000000E+00   0.000000E+00   0.000000E+00   0.000000E+00   0.000000E+00   0.000000E+00   0.000000E+00   0.000000E+00   0.000000E+00   0.000000E+00   0.000000E+00   0.000000E+00   0.000000E+00   0.000000E+00   0.000000E+00   0.000000E+00   0.000000E+00   0.000000E+00   0.000000E+00   0.000000E+00   0.000000E+00   0.000000E+00   0.000000E+00   0.000000E+00   0.000000E+00   0.000000E+00   0.000000E+00   0.000000E+00   0.000000E+00   0.000000E+00   0.000000E+00
   0.000000E+00   0.000000E+00   0.000000E+00   0.000000E+00   0.000000E+00   0.000000E+00   0.000000E+00   0.000000E+00   0.000000E+00   0.000000E+00   0.000000E+00   0.000000E+00   0.000000E+00   0.000000E+00   0.000000E+00   0.000000E+00   0.000000E+00   0.000000E+00   0.000000E+00   0.000000E+00   0.000000E+00   0.000000E+00   0.000000E+00   0.000000E+00   0.000000E+00   0.000000E+00   0.000000E+00   0.000000E+00   0.000000E+00   0.000000E+00   0.000000E+00   0.000000E+00   0.000000E+00   0.000000E+00   0.000000E+00   0.000000E+00   0.000000E+00   0.000000E+00   0.000000E+00   0.000000E+00   0.000000E+00   0.000000E+00
   0.000000E+00   0.000000E+00   0.000000E+00   0.000000E+00   0.000000E+00   0.000000E+00   0.000000E+00   0.000000E+00   0.000000E+00   0.000000E+00   0.000000E+00   0.000000E+00   0.000000E+00   0.000000E+00   0.000000E+00   0.000000E+00   0.000000E+00   0.000000E+00   0.000000E+00   0.000000E+00   0.000000E+00   0.000000E+00   0.000000E+00   0.000000E+00   0.000000E+00   0.000000E+00   0.000000E+00   0.000000E+00   0.000000E+00   0.000000E+00   0.000000E+00   0.000000E+00   0.000000E+00   0.000000E+00   0.000000E+00   0.000000E+00   0.000000E+00   0.000000E+00   0.000000E+00   0.000000E+00   0.000000E+00   0.000000E+00
   2.865622E-02   2.374240E-03   2.378870E-03   2.421196E-03   2.413921E-03   2.398049E-03   2.444343E-03   2.400694E-03   2.429794E-03   2.429794E-03   2.410615E-03   2.362998E-03   2.322655E-03   2.254536E-03   2.273716E-03   2.278345E-03   2.275700E-03   2.259166E-03   2.226098E-03   2.228744E-03   2.224776E-03   2.259166E-03   2.222130E-03   2.202951E-03   2.208903E-03   2.264457E-03   2.247923E-03   2.244616E-03   2.261150E-03   2.275038E-03   2.232051E-03   2.204935E-03   2.209565E-03   2.218162E-03   2.257843E-03   2.259166E-03   2.208903E-03   2.221469E-03   2.213533E-03   2.251891E-03   2.238003E-03   2.865622E-02
   2.865622E-02   2.325301E-03   2.409953E-03   2.440375E-03   2.428471E-03   2.384822E-03   2.420535E-03   2.388129E-03   2.385483E-03   2.347125E-03   2.378209E-03   2.362336E-03   2.311412E-03   2.312074E-03   2.354400E-03   2.362998E-03   2.308106E-03   2.320010E-03   2.333237E-03   2.268425E-03   2.290249E-03   2.320010E-03   2.341834E-03   2.299508E-03   2.340512E-03   2.343818E-03   2.325301E-03   2.324639E-03   2.333898E-03   2.265779E-03   2.263795E-03   2.291572E-03   2.227421E-03   2.251230E-03   2.217501E-03   2.239325E-03   2.264457E-03   2.269747E-03   2.216178E-03   2.259827E-03   2.290911E-03   2.865622E-02