# Name file for MODFLOW-2005, generated by Flopy version 3.3.0.
#xll:0.0; yll:0.0; rotation:0.0; units:centimeters; lenuni:3; start_datetime:1-1-1970
LIST               2  td3_mf.list
DIS               11  td3_mf.dis
BAS6              13  td3_mf.bas
LPF               15  td3_mf.lpf
WEL               20  td3_mf.wel
PCG               27  td3_mf.pcg
LMT6              30  td3_mf.lmt6
OC                14  td3_mf.oc
DATA(BINARY)      51  td3_mf.hds REPLACE
