# DIS package for  MODFLOW-2005, generated by Flopy.
         1        20        42         2         2         3
  0
CONSTANT    2.500000E-01                           #delr                          
CONSTANT    2.500000E-01                           #delc                          
CONSTANT    0.000000E+00                           #model_top                     
CONSTANT   -2.500000E-01                           #botm layer 1                  
      1.000000             1  1.000000  SS 
     20.000000             1  1.000000  SS 
