# Name file for MT3DMS, generated by Flopy version 3.3.0.
LIST              16  td1000_mt.list
FTL               10  mt3d_link.ftl 
BTN               31  td1000_mt.btn
ADV               32  td1000_mt.adv
DSP               33  td1000_mt.dsp
SSM               34  td1000_mt.ssm
GCG               35  td1000_mt.gcg
