# WEL package for  MODFLOW-2005, generated by Flopy.
        20         0 
        20         0 # stress period 1
         1         1         1     0.024669066
         1         2         1     0.024669066
         1         3         1     0.024669066
         1         4         1     0.024669066
         1         5         1     0.024669066
         1         6         1     0.024669066
         1         7         1     0.024669066
         1         8         1     0.024669066
         1         9         1     0.024669066
         1        10         1     0.024669066
         1        11         1     0.024669066
         1        12         1     0.024669066
         1        13         1     0.024669066
         1        14         1     0.024669066
         1        15         1     0.024669066
         1        16         1     0.024669066
         1        17         1     0.024669066
         1        18         1     0.024669066
         1        19         1     0.024669066
         1        20         1     0.024669066
        -1         0 # stress period 2
