# LPF package for  MODFLOW-2005, generated by Flopy.
         0    -1E+30         0  
         0
         0
   1.000000E+00
         0
         0
INTERNAL               1  (42E15.6) -1 #hk layer 1                    
   6.975902E-01   5.640044E-02   5.719803E-02   5.723242E-02   5.693018E-02   5.674501E-02   5.677146E-02   5.669342E-02   5.620270E-02   5.537403E-02   5.450238E-02   5.384235E-02   5.327557E-02   5.259505E-02   5.187815E-02   5.141256E-02   5.133121E-02   5.147737E-02   5.153557E-02   5.128293E-02   5.103096E-02   5.113810E-02   5.199190E-02   5.357517E-02   5.550763E-02   5.706378E-02   5.759087E-02   5.686339E-02   5.552217E-02   5.462009E-02   5.489059E-02   5.618617E-02   5.764576E-02   5.842549E-02   5.845393E-02   5.835010E-02   5.884347E-02   5.996577E-02   6.115157E-02   6.189096E-02   6.221700E-02   6.975902E-01
   6.975902E-01   6.061257E-02   5.974687E-02   5.762923E-02   5.496003E-02   5.268896E-02   5.161824E-02   5.206266E-02   5.367304E-02   5.567957E-02   5.711801E-02   5.742421E-02   5.663060E-02   5.509296E-02   5.340189E-02   5.198528E-02   5.089207E-02   4.995098E-02   4.903303E-02   4.816468E-02   4.745770E-02   4.703377E-02   4.696830E-02   4.730492E-02   4.799272E-02   4.869706E-02   4.889414E-02   4.832737E-02   4.745571E-02   4.714818E-02   4.814682E-02   5.046286E-02   5.336155E-02   5.604332E-02   5.816360E-02   5.992874E-02   6.164494E-02   6.328839E-02   6.447683E-02   6.493911E-02   6.474335E-02   6.975902E-01
   6.975902E-01   6.083412E-02   5.891423E-02   5.636407E-02   5.403216E-02   5.278485E-02   5.305138E-02   5.460092E-02   5.662729E-02   5.817815E-02   5.858289E-02   5.748373E-02   5.509098E-02   5.208184E-02   4.925391E-02   4.723151E-02   4.629901E-02   4.641938E-02   4.742529E-02   4.885777E-02   5.016129E-02   5.091390E-02   5.098400E-02   5.054355E-02   4.980217E-02   4.892589E-02   4.797817E-02   4.711445E-02   4.677783E-02   4.733336E-02   4.881676E-02   5.075782E-02   5.268301E-02   5.440251E-02   5.609953E-02   5.804919E-02   6.026669E-02   6.258471E-02   6.475129E-02   6.655809E-02   6.785434E-02   6.975902E-01
   6.975902E-01   5.721192E-02   5.410160E-02   5.148530E-02   5.028826E-02   5.096615E-02   5.325375E-02   5.618485E-02   5.866226E-02   5.986392E-02   5.956566E-02   5.794403E-02   5.564849E-02   5.348390E-02   5.210301E-02   5.173463E-02   5.212351E-02   5.302955E-02   5.424313E-02   5.572124E-02   5.751812E-02   5.944529E-02   6.114893E-02   6.199016E-02   6.135593E-02   5.928657E-02   5.629066E-02   5.330137E-02   5.123994E-02   5.045757E-02   5.055148E-02   5.070161E-02   5.039474E-02   4.986699E-02   4.986566E-02   5.096218E-02   5.317505E-02   5.607175E-02   5.896582E-02   6.112578E-02   6.209929E-02   6.975902E-01
   6.975902E-01   5.508040E-02   5.520010E-02   5.532509E-02   5.517232E-02   5.468822E-02   5.426495E-02   5.445807E-02   5.573513E-02   5.804059E-02   6.092671E-02   6.380159E-02   6.614806E-02   6.757657E-02   6.799983E-02   6.751705E-02   6.633985E-02   6.465606E-02   6.254768E-02   6.044129E-02   5.913115E-02   5.920721E-02   6.057554E-02   6.230893E-02   6.319646E-02   6.250270E-02   6.030902E-02   5.710677E-02   5.358641E-02   5.033919E-02   4.770768E-02   4.599611E-02   4.542802E-02   4.612375E-02   4.776456E-02   4.984384E-02   5.187153E-02   5.366511E-02   5.508767E-02   5.592824E-02   5.593419E-02   6.975902E-01
   6.975902E-01   5.499773E-02   5.699764E-02   5.920522E-02   6.047369E-02   6.001405E-02   5.800885E-02   5.555128E-02   5.403546E-02   5.422858E-02   5.588459E-02   5.810276E-02   5.984409E-02   6.043335E-02   6.004844E-02   5.919266E-02   5.836134E-02   5.756045E-02   5.648312E-02   5.505129E-02   5.370744E-02   5.321804E-02   5.401298E-02   5.584690E-02   5.791494E-02   5.925813E-02   5.929715E-02   5.796586E-02   5.555458E-02   5.265920E-02   4.996024E-02   4.824139E-02   4.790939E-02   4.885975E-02   5.034911E-02   5.155342E-02   5.211954E-02   5.252032E-02   5.330137E-02   5.446468E-02   5.544347E-02   6.975902E-01
   6.975902E-01   5.374249E-02   5.339792E-02   5.327888E-02   5.303683E-02   5.219295E-02   5.073071E-02   4.907469E-02   4.788228E-02   4.763824E-02   4.837366E-02   4.971157E-02   5.108519E-02   5.217774E-02   5.292704E-02   5.363866E-02   5.462340E-02   5.597520E-02   5.736668E-02   5.838912E-02   5.871781E-02   5.835076E-02   5.759418E-02   5.690704E-02   5.640706E-02   5.588129E-02   5.501691E-02   5.358244E-02   5.172934E-02   4.986699E-02   4.846030E-02   4.781615E-02   4.797619E-02   4.853635E-02   4.888687E-02   4.872352E-02   4.844178E-02   4.895697E-02   5.083321E-02   5.364593E-02   5.625892E-02   6.975902E-01
   6.975902E-01   4.969768E-02   4.768520E-02   4.628248E-02   4.550076E-02   4.506824E-02   4.472037E-02   4.459075E-02   4.483148E-02   4.565618E-02   4.707477E-02   4.905419E-02   5.145224E-02   5.383904E-02   5.563394E-02   5.648245E-02   5.651883E-02   5.631447E-02   5.637796E-02   5.682702E-02   5.722912E-02   5.701815E-02   5.599173E-02   5.458174E-02   5.353747E-02   5.326433E-02   5.358641E-02   5.403480E-02   5.436482E-02   5.479006E-02   5.560550E-02   5.681908E-02   5.801612E-02   5.853792E-02   5.789906E-02   5.628339E-02   5.449907E-02   5.357980E-02   5.402092E-02   5.554136E-02   5.732435E-02   6.975902E-01
   6.975902E-01   5.109379E-02   4.963419E-02   4.820039E-02   4.674873E-02   4.525342E-02   4.380573E-02   4.272773E-02   4.227074E-02   4.246716E-02   4.321647E-02   4.464233E-02   4.680494E-02   4.954755E-02   5.236027E-02   5.462936E-02   5.590708E-02   5.642293E-02   5.683495E-02   5.769801E-02   5.893539E-02   5.988641E-02   5.994263E-02   5.904518E-02   5.799429E-02   5.753400E-02   5.778531E-02   5.846451E-02   5.924623E-02   6.013839E-02   6.115422E-02   6.209333E-02   6.247030E-02   6.192535E-02   6.046112E-02   5.834812E-02   5.604001E-02   5.394023E-02   5.228487E-02   5.115661E-02   5.077237E-02   6.975902E-01
   6.975902E-01   5.621527E-02   5.636143E-02   5.594213E-02   5.520803E-02   5.455991E-02   5.432315E-02   5.441177E-02   5.424974E-02   5.332981E-02   5.171016E-02   5.017121E-02   4.972744E-02   5.093308E-02   5.361551E-02   5.700558E-02   6.006762E-02   6.208804E-02   6.285587E-02   6.264225E-02   6.183408E-02   6.051800E-02   5.867747E-02   5.640177E-02   5.435886E-02   5.324912E-02   5.340520E-02   5.430728E-02   5.523383E-02   5.556715E-02   5.533766E-02   5.474244E-02   5.409102E-02   5.347795E-02   5.290323E-02   5.220485E-02   5.130277E-02   5.018443E-02   4.911503E-02   4.844839E-02   4.858992E-02   6.975902E-01
   6.975902E-01   5.172339E-02   5.258910E-02   5.394486E-02   5.542826E-02   5.679858E-02   5.812128E-02   5.933220E-02   6.009408E-02   5.998231E-02   5.893870E-02   5.732964E-02   5.596065E-02   5.556979E-02   5.648642E-02   5.852073E-02   6.081230E-02   6.227520E-02   6.212111E-02   6.022039E-02   5.724366E-02   5.393692E-02   5.086298E-02   4.838887E-02   4.676526E-02   4.623155E-02   4.664357E-02   4.759393E-02   4.873211E-02   4.992585E-02   5.140925E-02   5.318497E-02   5.502021E-02   5.640177E-02   5.691564E-02   5.645798E-02   5.524970E-02   5.376630E-02   5.251635E-02   5.186955E-02   5.208449E-02   6.975902E-01
   6.975902E-01   4.879693E-02   4.934584E-02   5.032662E-02   5.125648E-02   5.215327E-02   5.341380E-02   5.550432E-02   5.843078E-02   6.152854E-02   6.383070E-02   6.472880E-02   6.433596E-02   6.322424E-02   6.198355E-02   6.087513E-02   5.965296E-02   5.804919E-02   5.608895E-02   5.407250E-02   5.239863E-02   5.132592E-02   5.077568E-02   5.073600E-02   5.103823E-02   5.148663E-02   5.167511E-02   5.124920E-02   5.025255E-02   4.924797E-02   4.894044E-02   4.955814E-02   5.075121E-02   5.182590E-02   5.229479E-02   5.220287E-02   5.197537E-02   5.204017E-02   5.261224E-02   5.356260E-02   5.459430E-02   6.975902E-01
   6.975902E-01   5.128293E-02   5.197801E-02   5.273525E-02   5.320216E-02   5.341380E-02   5.372000E-02   5.469615E-02   5.666168E-02   5.936064E-02   6.194122E-02   6.341007E-02   6.314488E-02   6.121242E-02   5.813120E-02   5.464589E-02   5.133121E-02   4.886041E-02   4.784392E-02   4.837763E-02   5.019237E-02   5.247799E-02   5.454470E-02   5.597057E-02   5.663721E-02   5.642359E-02   5.516968E-02   5.304543E-02   5.062621E-02   4.873145E-02   4.788228E-02   4.797222E-02   4.840144E-02   4.852710E-02   4.814219E-02   4.748283E-02   4.699739E-02   4.704964E-02   4.771959E-02   4.883594E-02   5.016988E-02   6.975902E-01
   6.975902E-01   5.338139E-02   5.353284E-02   5.432844E-02   5.513330E-02   5.533700E-02   5.483834E-02   5.400835E-02   5.349183E-02   5.368230E-02   5.431323E-02   5.487339E-02   5.489390E-02   5.440648E-02   5.351829E-02   5.237349E-02   5.107329E-02   5.012690E-02   5.023469E-02   5.187021E-02   5.466639E-02   5.766032E-02   5.979052E-02   6.070053E-02   6.066614E-02   6.007953E-02   5.908684E-02   5.765039E-02   5.586078E-02   5.405464E-02   5.255206E-02   5.146679E-02   5.063812E-02   4.982268E-02   4.879759E-02   4.749208E-02   4.592601E-02   4.444261E-02   4.366883E-02   4.421709E-02   4.631687E-02   6.975902E-01
   6.975902E-01   5.627479E-02   5.598578E-02   5.516902E-02   5.359302E-02   5.139206E-02   4.906477E-02   4.735254E-02   4.689092E-02   4.774737E-02   4.935907E-02   5.086364E-02   5.182524E-02   5.252693E-02   5.333443E-02   5.428942E-02   5.504402E-02   5.532443E-02   5.525102E-02   5.520869E-02   5.534229E-02   5.552680E-02   5.564254E-02   5.597321E-02   5.689646E-02   5.830976E-02   5.961460E-02   6.001207E-02   5.915232E-02   5.751283E-02   5.602348E-02   5.547919E-02   5.583499E-02   5.631381E-02   5.606183E-02   5.468491E-02   5.247667E-02   5.009912E-02   4.847088E-02   4.847088E-02   5.044963E-02   6.975902E-01
   6.975902E-01   6.028454E-02   6.034407E-02   5.956500E-02   5.830579E-02   5.701153E-02   5.604596E-02   5.548646E-02   5.519679E-02   5.470872E-02   5.356921E-02   5.182987E-02   5.034712E-02   5.010375E-02   5.144298E-02   5.354408E-02   5.526689E-02   5.597784E-02   5.588129E-02   5.564320E-02   5.576754E-02   5.646790E-02   5.757566E-02   5.882230E-02   5.990824E-02   6.044459E-02   6.000810E-02   5.845989E-02   5.620138E-02   5.428347E-02   5.403150E-02   5.611408E-02   5.999025E-02   6.404167E-02   6.652503E-02   6.664407E-02   6.465606E-02   6.154375E-02   5.851411E-02   5.662068E-02   5.656909E-02   6.975902E-01
   6.975902E-01   6.456479E-02   6.451717E-02   6.422354E-02   6.402976E-02   6.405092E-02   6.404232E-02   6.367594E-02   6.253247E-02   6.023560E-02   5.678535E-02   5.306593E-02   5.040136E-02   4.973802E-02   5.084644E-02   5.257455E-02   5.388600E-02   5.453809E-02   5.481453E-02   5.501955E-02   5.529004E-02   5.566569E-02   5.611673E-02   5.647584E-02   5.635944E-02   5.536610E-02   5.342967E-02   5.092051E-02   4.870698E-02   4.789617E-02   4.931277E-02   5.306328E-02   5.831902E-02   6.368255E-02   6.776175E-02   6.975902E-02   6.946803E-02   6.717976E-02   6.362369E-02   5.995255E-02   5.726615E-02   6.975902E-01
   6.975902E-01   6.115356E-02   6.078320E-02   5.994197E-02   5.878923E-02   5.743546E-02   5.597652E-02   5.462936E-02   5.350969E-02   5.271607E-02   5.229546E-02   5.248592E-02   5.335758E-02   5.461944E-02   5.575233E-02   5.638391E-02   5.665506E-02   5.688257E-02   5.714050E-02   5.723308E-02   5.692556E-02   5.642293E-02   5.615376E-02   5.647187E-02   5.727541E-02   5.823701E-02   5.888447E-02   5.895722E-02   5.867615E-02   5.870128E-02   5.961857E-02   6.129574E-02   6.293721E-02   6.376787E-02   6.365808E-02   6.316008E-02   6.253577E-02   6.156161E-02   5.982226E-02   5.742686E-02   5.506055E-02   6.975902E-01
   6.975902E-01   5.450105E-02   5.380201E-02   5.285562E-02   5.182854E-02   5.100583E-02   5.068375E-02   5.117976E-02   5.247336E-02   5.428479E-02   5.617757E-02   5.758690E-02   5.814508E-02   5.791956E-02   5.727343E-02   5.692952E-02   5.745265E-02   5.871384E-02   6.008614E-02   6.085132E-02   6.090555E-02   6.076931E-02   6.108279E-02   6.225007E-02   6.412169E-02   6.614806E-02   6.760964E-02   6.798661E-02   6.732526E-02   6.620096E-02   6.526251E-02   6.454429E-02   6.357012E-02   6.198156E-02   6.012318E-02   5.878593E-02   5.850287E-02   5.892547E-02   5.920126E-02   5.874956E-02   5.767024E-02   6.975902E-01
   6.975902E-01   5.134245E-02   5.092845E-02   5.047278E-02   5.027438E-02   5.048006E-02   5.106469E-02   5.203687E-02   5.358178E-02   5.581780E-02   5.843409E-02   6.072699E-02   6.201463E-02   6.205828E-02   6.125673E-02   6.030108E-02   5.992609E-02   6.036853E-02   6.124747E-02   6.176530E-02   6.124747E-02   5.975480E-02   5.805051E-02   5.707039E-02   5.740503E-02   5.878064E-02   6.035399E-02   6.127524E-02   6.132617E-02   6.079246E-02   6.017344E-02   5.986459E-02   6.008680E-02   6.100806E-02   6.258538E-02   6.445170E-02   6.596751E-02   6.653825E-02   6.588021E-02   6.430885E-02   6.264424E-02   6.975902E-01
CONSTANT    1.000000E+00                           #vka1                          
